<routes>

        <vType id = 'ego_car' vclass="evehicle" emissionClass="Energy/unknown" tau="1" accel="3.0" decel="3.0" color="#00FFFF" sigma="0.2" length="4.90" minGap="1" maxSpeed="20" guiShape="passenger">
            <param key="has.battery.device" value="true"/>
            <param key="maximumBatteryCapacity" value="38000"/> 
            <param key="maximumPower" value="200000"/>
            <param key="vehicleMass" value="1830"/>
            <param key="frontSurfaceArea" value="2.6"/>
            <param key="airDragCoefficient" value="0.35"/>
            <param key="internalMomentOfInertia" value="0.01"/>
            <param key="radialDragCoefficient" value="0.1"/>
            <param key="rollDragCoefficient" value="0.01"/>
            <param key="constantPowerIntake" value="100"/>
            <param key="propulsionEfficiency" value="0.9"/>
            <param key="recuperationEfficiency" value="0.9"/>
            <param key="stoppingThreshold" value="0.1"/>
        </vType>
        
        <route id="W2E" edges="WE0 WE1"/>
        <route id="E2W" edges="EW0 EW1"/>
   <vehicle id="E2W_1" type="ego_car" route="E2W" depart="84" departSpeed="10" departLane="best"/>
   <vehicle id="E2W_2" type="ego_car" route="E2W" depart="93" departSpeed="10" departLane="best"/>
   <vehicle id="W2E_3" type="ego_car" route="W2E" depart="96" departSpeed="10" departLane="best"/>
   <vehicle id="E2W_4" type="ego_car" route="E2W" depart="102" departSpeed="10" departLane="best"/>
   <vehicle id="W2E_5" type="ego_car" route="W2E" depart="136" departSpeed="10" departLane="best"/>
   <vehicle id="E2W_6" type="ego_car" route="E2W" depart="179" departSpeed="10" departLane="best"/>
   <vehicle id="W2E_7" type="ego_car" route="W2E" depart="182" departSpeed="10" departLane="best"/>
   <vehicle id="E2W_8" type="ego_car" route="E2W" depart="190" departSpeed="10" departLane="best"/>
   <vehicle id="W2E_9" type="ego_car" route="W2E" depart="207" departSpeed="10" departLane="best"/>
   <vehicle id="W2E_10" type="ego_car" route="W2E" depart="213" departSpeed="10" departLane="best"/>
   <vehicle id="W2E_11" type="ego_car" route="W2E" depart="244" departSpeed="10" departLane="best"/>
   <vehicle id="W2E_12" type="ego_car" route="W2E" depart="268" departSpeed="10" departLane="best"/>
   <vehicle id="E2W_13" type="ego_car" route="E2W" depart="274" departSpeed="10" departLane="best"/>
   <vehicle id="E2W_14" type="ego_car" route="E2W" depart="275" departSpeed="10" departLane="best"/>
   <vehicle id="E2W_15" type="ego_car" route="E2W" depart="281" departSpeed="10" departLane="best"/>
   <vehicle id="E2W_16" type="ego_car" route="E2W" depart="294" departSpeed="10" departLane="best"/>
   <vehicle id="E2W_17" type="ego_car" route="E2W" depart="302" departSpeed="10" departLane="best"/>
   <vehicle id="E2W_18" type="ego_car" route="E2W" depart="317" departSpeed="10" departLane="best"/>
   <vehicle id="W2E_19" type="ego_car" route="W2E" depart="323" departSpeed="10" departLane="best"/>
   <vehicle id="E2W_20" type="ego_car" route="E2W" depart="328" departSpeed="10" departLane="best"/>
   <vehicle id="E2W_21" type="ego_car" route="E2W" depart="330" departSpeed="10" departLane="best"/>
   <vehicle id="W2E_22" type="ego_car" route="W2E" depart="337" departSpeed="10" departLane="best"/>
   <vehicle id="W2E_23" type="ego_car" route="W2E" depart="338" departSpeed="10" departLane="best"/>
   <vehicle id="E2W_24" type="ego_car" route="E2W" depart="338" departSpeed="10" departLane="best"/>
   <vehicle id="W2E_25" type="ego_car" route="W2E" depart="352" departSpeed="10" departLane="best"/>
   <vehicle id="E2W_26" type="ego_car" route="E2W" depart="363" departSpeed="10" departLane="best"/>
   <vehicle id="W2E_27" type="ego_car" route="W2E" depart="368" departSpeed="10" departLane="best"/>
   <vehicle id="E2W_28" type="ego_car" route="E2W" depart="374" departSpeed="10" departLane="best"/>
   <vehicle id="W2E_29" type="ego_car" route="W2E" depart="375" departSpeed="10" departLane="best"/>
   <vehicle id="W2E_30" type="ego_car" route="W2E" depart="377" departSpeed="10" departLane="best"/>
   <vehicle id="W2E_31" type="ego_car" route="W2E" depart="404" departSpeed="10" departLane="best"/>
   <vehicle id="W2E_32" type="ego_car" route="W2E" depart="406" departSpeed="10" departLane="best"/>
   <vehicle id="W2E_33" type="ego_car" route="W2E" depart="410" departSpeed="10" departLane="best"/>
   <vehicle id="E2W_34" type="ego_car" route="E2W" depart="410" departSpeed="10" departLane="best"/>
   <vehicle id="W2E_35" type="ego_car" route="W2E" depart="410" departSpeed="10" departLane="best"/>
   <vehicle id="E2W_36" type="ego_car" route="E2W" depart="412" departSpeed="10" departLane="best"/>
   <vehicle id="E2W_37" type="ego_car" route="E2W" depart="434" departSpeed="10" departLane="best"/>
   <vehicle id="W2E_38" type="ego_car" route="W2E" depart="450" departSpeed="10" departLane="best"/>
   <vehicle id="W2E_39" type="ego_car" route="W2E" depart="461" departSpeed="10" departLane="best"/>
   <vehicle id="W2E_40" type="ego_car" route="W2E" depart="467" departSpeed="10" departLane="best"/>
   <vehicle id="W2E_41" type="ego_car" route="W2E" depart="472" departSpeed="10" departLane="best"/>
   <vehicle id="E2W_42" type="ego_car" route="E2W" depart="477" departSpeed="10" departLane="best"/>
   <vehicle id="W2E_43" type="ego_car" route="W2E" depart="480" departSpeed="10" departLane="best"/>
   <vehicle id="E2W_44" type="ego_car" route="E2W" depart="481" departSpeed="10" departLane="best"/>
   <vehicle id="E2W_45" type="ego_car" route="E2W" depart="489" departSpeed="10" departLane="best"/>
   <vehicle id="E2W_46" type="ego_car" route="E2W" depart="491" departSpeed="10" departLane="best"/>
   <vehicle id="W2E_47" type="ego_car" route="W2E" depart="511" departSpeed="10" departLane="best"/>
   <vehicle id="W2E_48" type="ego_car" route="W2E" depart="515" departSpeed="10" departLane="best"/>
   <vehicle id="E2W_49" type="ego_car" route="E2W" depart="531" departSpeed="10" departLane="best"/>
   <vehicle id="W2E_50" type="ego_car" route="W2E" depart="536" departSpeed="10" departLane="best"/>
   <vehicle id="E2W_51" type="ego_car" route="E2W" depart="538" departSpeed="10" departLane="best"/>
   <vehicle id="W2E_52" type="ego_car" route="W2E" depart="539" departSpeed="10" departLane="best"/>
   <vehicle id="W2E_53" type="ego_car" route="W2E" depart="542" departSpeed="10" departLane="best"/>
   <vehicle id="E2W_54" type="ego_car" route="E2W" depart="543" departSpeed="10" departLane="best"/>
   <vehicle id="W2E_55" type="ego_car" route="W2E" depart="558" departSpeed="10" departLane="best"/>
   <vehicle id="W2E_56" type="ego_car" route="W2E" depart="561" departSpeed="10" departLane="best"/>
   <vehicle id="E2W_57" type="ego_car" route="E2W" depart="562" departSpeed="10" departLane="best"/>
   <vehicle id="E2W_58" type="ego_car" route="E2W" depart="562" departSpeed="10" departLane="best"/>
   <vehicle id="E2W_59" type="ego_car" route="E2W" depart="562" departSpeed="10" departLane="best"/>
   <vehicle id="E2W_60" type="ego_car" route="E2W" depart="574" departSpeed="10" departLane="best"/>
   <vehicle id="W2E_61" type="ego_car" route="W2E" depart="579" departSpeed="10" departLane="best"/>
   <vehicle id="E2W_62" type="ego_car" route="E2W" depart="579" departSpeed="10" departLane="best"/>
   <vehicle id="W2E_63" type="ego_car" route="W2E" depart="607" departSpeed="10" departLane="best"/>
   <vehicle id="E2W_64" type="ego_car" route="E2W" depart="613" departSpeed="10" departLane="best"/>
   <vehicle id="E2W_65" type="ego_car" route="E2W" depart="616" departSpeed="10" departLane="best"/>
   <vehicle id="W2E_66" type="ego_car" route="W2E" depart="619" departSpeed="10" departLane="best"/>
   <vehicle id="E2W_67" type="ego_car" route="E2W" depart="624" departSpeed="10" departLane="best"/>
   <vehicle id="E2W_68" type="ego_car" route="E2W" depart="627" departSpeed="10" departLane="best"/>
   <vehicle id="E2W_69" type="ego_car" route="E2W" depart="634" departSpeed="10" departLane="best"/>
   <vehicle id="E2W_70" type="ego_car" route="E2W" depart="637" departSpeed="10" departLane="best"/>
   <vehicle id="E2W_71" type="ego_car" route="E2W" depart="640" departSpeed="10" departLane="best"/>
   <vehicle id="W2E_72" type="ego_car" route="W2E" depart="660" departSpeed="10" departLane="best"/>
   <vehicle id="E2W_73" type="ego_car" route="E2W" depart="660" departSpeed="10" departLane="best"/>
   <vehicle id="E2W_74" type="ego_car" route="E2W" depart="667" departSpeed="10" departLane="best"/>
   <vehicle id="E2W_75" type="ego_car" route="E2W" depart="669" departSpeed="10" departLane="best"/>
   <vehicle id="E2W_76" type="ego_car" route="E2W" depart="669" departSpeed="10" departLane="best"/>
   <vehicle id="W2E_77" type="ego_car" route="W2E" depart="684" departSpeed="10" departLane="best"/>
   <vehicle id="W2E_78" type="ego_car" route="W2E" depart="687" departSpeed="10" departLane="best"/>
   <vehicle id="E2W_79" type="ego_car" route="E2W" depart="690" departSpeed="10" departLane="best"/>
   <vehicle id="E2W_80" type="ego_car" route="E2W" depart="691" departSpeed="10" departLane="best"/>
   <vehicle id="W2E_81" type="ego_car" route="W2E" depart="694" departSpeed="10" departLane="best"/>
   <vehicle id="W2E_82" type="ego_car" route="W2E" depart="700" departSpeed="10" departLane="best"/>
   <vehicle id="W2E_83" type="ego_car" route="W2E" depart="701" departSpeed="10" departLane="best"/>
   <vehicle id="W2E_84" type="ego_car" route="W2E" depart="701" departSpeed="10" departLane="best"/>
   <vehicle id="W2E_85" type="ego_car" route="W2E" depart="709" departSpeed="10" departLane="best"/>
   <vehicle id="W2E_86" type="ego_car" route="W2E" depart="714" departSpeed="10" departLane="best"/>
   <vehicle id="E2W_87" type="ego_car" route="E2W" depart="717" departSpeed="10" departLane="best"/>
   <vehicle id="W2E_88" type="ego_car" route="W2E" depart="722" departSpeed="10" departLane="best"/>
   <vehicle id="W2E_89" type="ego_car" route="W2E" depart="728" departSpeed="10" departLane="best"/>
   <vehicle id="W2E_90" type="ego_car" route="W2E" depart="730" departSpeed="10" departLane="best"/>
   <vehicle id="E2W_91" type="ego_car" route="E2W" depart="732" departSpeed="10" departLane="best"/>
   <vehicle id="W2E_92" type="ego_car" route="W2E" depart="748" departSpeed="10" departLane="best"/>
   <vehicle id="E2W_93" type="ego_car" route="E2W" depart="749" departSpeed="10" departLane="best"/>
   <vehicle id="W2E_94" type="ego_car" route="W2E" depart="750" departSpeed="10" departLane="best"/>
   <vehicle id="W2E_95" type="ego_car" route="W2E" depart="752" departSpeed="10" departLane="best"/>
   <vehicle id="E2W_96" type="ego_car" route="E2W" depart="754" departSpeed="10" departLane="best"/>
   <vehicle id="E2W_97" type="ego_car" route="E2W" depart="757" departSpeed="10" departLane="best"/>
   <vehicle id="E2W_98" type="ego_car" route="E2W" depart="761" departSpeed="10" departLane="best"/>
   <vehicle id="E2W_99" type="ego_car" route="E2W" depart="771" departSpeed="10" departLane="best"/>
   <vehicle id="W2E_100" type="ego_car" route="W2E" depart="776" departSpeed="10" departLane="best"/>
   <vehicle id="E2W_101" type="ego_car" route="E2W" depart="782" departSpeed="10" departLane="best"/>
   <vehicle id="W2E_102" type="ego_car" route="W2E" depart="783" departSpeed="10" departLane="best"/>
   <vehicle id="W2E_103" type="ego_car" route="W2E" depart="785" departSpeed="10" departLane="best"/>
   <vehicle id="W2E_104" type="ego_car" route="W2E" depart="787" departSpeed="10" departLane="best"/>
   <vehicle id="E2W_105" type="ego_car" route="E2W" depart="791" departSpeed="10" departLane="best"/>
   <vehicle id="E2W_106" type="ego_car" route="E2W" depart="798" departSpeed="10" departLane="best"/>
   <vehicle id="E2W_107" type="ego_car" route="E2W" depart="814" departSpeed="10" departLane="best"/>
   <vehicle id="E2W_108" type="ego_car" route="E2W" depart="823" departSpeed="10" departLane="best"/>
   <vehicle id="E2W_109" type="ego_car" route="E2W" depart="825" departSpeed="10" departLane="best"/>
   <vehicle id="E2W_110" type="ego_car" route="E2W" depart="830" departSpeed="10" departLane="best"/>
   <vehicle id="W2E_111" type="ego_car" route="W2E" depart="833" departSpeed="10" departLane="best"/>
   <vehicle id="W2E_112" type="ego_car" route="W2E" depart="847" departSpeed="10" departLane="best"/>
   <vehicle id="E2W_113" type="ego_car" route="E2W" depart="847" departSpeed="10" departLane="best"/>
   <vehicle id="E2W_114" type="ego_car" route="E2W" depart="849" departSpeed="10" departLane="best"/>
   <vehicle id="W2E_115" type="ego_car" route="W2E" depart="858" departSpeed="10" departLane="best"/>
   <vehicle id="W2E_116" type="ego_car" route="W2E" depart="864" departSpeed="10" departLane="best"/>
   <vehicle id="E2W_117" type="ego_car" route="E2W" depart="866" departSpeed="10" departLane="best"/>
   <vehicle id="E2W_118" type="ego_car" route="E2W" depart="867" departSpeed="10" departLane="best"/>
   <vehicle id="E2W_119" type="ego_car" route="E2W" depart="871" departSpeed="10" departLane="best"/>
   <vehicle id="E2W_120" type="ego_car" route="E2W" depart="872" departSpeed="10" departLane="best"/>
   <vehicle id="W2E_121" type="ego_car" route="W2E" depart="877" departSpeed="10" departLane="best"/>
   <vehicle id="E2W_122" type="ego_car" route="E2W" depart="885" departSpeed="10" departLane="best"/>
   <vehicle id="E2W_123" type="ego_car" route="E2W" depart="888" departSpeed="10" departLane="best"/>
   <vehicle id="W2E_124" type="ego_car" route="W2E" depart="889" departSpeed="10" departLane="best"/>
   <vehicle id="W2E_125" type="ego_car" route="W2E" depart="892" departSpeed="10" departLane="best"/>
   <vehicle id="W2E_126" type="ego_car" route="W2E" depart="900" departSpeed="10" departLane="best"/>
   <vehicle id="W2E_127" type="ego_car" route="W2E" depart="904" departSpeed="10" departLane="best"/>
   <vehicle id="W2E_128" type="ego_car" route="W2E" depart="914" departSpeed="10" departLane="best"/>
   <vehicle id="W2E_129" type="ego_car" route="W2E" depart="915" departSpeed="10" departLane="best"/>
   <vehicle id="E2W_130" type="ego_car" route="E2W" depart="927" departSpeed="10" departLane="best"/>
   <vehicle id="E2W_131" type="ego_car" route="E2W" depart="927" departSpeed="10" departLane="best"/>
   <vehicle id="W2E_132" type="ego_car" route="W2E" depart="949" departSpeed="10" departLane="best"/>
   <vehicle id="W2E_133" type="ego_car" route="W2E" depart="951" departSpeed="10" departLane="best"/>
   <vehicle id="W2E_134" type="ego_car" route="W2E" depart="951" departSpeed="10" departLane="best"/>
   <vehicle id="W2E_135" type="ego_car" route="W2E" depart="956" departSpeed="10" departLane="best"/>
   <vehicle id="W2E_136" type="ego_car" route="W2E" depart="959" departSpeed="10" departLane="best"/>
   <vehicle id="W2E_137" type="ego_car" route="W2E" depart="978" departSpeed="10" departLane="best"/>
   <vehicle id="E2W_138" type="ego_car" route="E2W" depart="985" departSpeed="10" departLane="best"/>
   <vehicle id="E2W_139" type="ego_car" route="E2W" depart="994" departSpeed="10" departLane="best"/>
   <vehicle id="W2E_140" type="ego_car" route="W2E" depart="1006" departSpeed="10" departLane="best"/>
   <vehicle id="W2E_141" type="ego_car" route="W2E" depart="1027" departSpeed="10" departLane="best"/>
   <vehicle id="E2W_142" type="ego_car" route="E2W" depart="1027" departSpeed="10" departLane="best"/>
   <vehicle id="E2W_143" type="ego_car" route="E2W" depart="1030" departSpeed="10" departLane="best"/>
   <vehicle id="E2W_144" type="ego_car" route="E2W" depart="1035" departSpeed="10" departLane="best"/>
   <vehicle id="E2W_145" type="ego_car" route="E2W" depart="1036" departSpeed="10" departLane="best"/>
   <vehicle id="E2W_146" type="ego_car" route="E2W" depart="1057" departSpeed="10" departLane="best"/>
   <vehicle id="W2E_147" type="ego_car" route="W2E" depart="1062" departSpeed="10" departLane="best"/>
   <vehicle id="E2W_148" type="ego_car" route="E2W" depart="1074" departSpeed="10" departLane="best"/>
   <vehicle id="W2E_149" type="ego_car" route="W2E" depart="1087" departSpeed="10" departLane="best"/>
   <vehicle id="E2W_150" type="ego_car" route="E2W" depart="1097" departSpeed="10" departLane="best"/>
   <vehicle id="E2W_151" type="ego_car" route="E2W" depart="1099" departSpeed="10" departLane="best"/>
   <vehicle id="W2E_152" type="ego_car" route="W2E" depart="1111" departSpeed="10" departLane="best"/>
   <vehicle id="E2W_153" type="ego_car" route="E2W" depart="1116" departSpeed="10" departLane="best"/>
   <vehicle id="E2W_154" type="ego_car" route="E2W" depart="1122" departSpeed="10" departLane="best"/>
   <vehicle id="W2E_155" type="ego_car" route="W2E" depart="1134" departSpeed="10" departLane="best"/>
   <vehicle id="W2E_156" type="ego_car" route="W2E" depart="1135" departSpeed="10" departLane="best"/>
   <vehicle id="W2E_157" type="ego_car" route="W2E" depart="1142" departSpeed="10" departLane="best"/>
   <vehicle id="W2E_158" type="ego_car" route="W2E" depart="1148" departSpeed="10" departLane="best"/>
   <vehicle id="W2E_159" type="ego_car" route="W2E" depart="1163" departSpeed="10" departLane="best"/>
   <vehicle id="E2W_160" type="ego_car" route="E2W" depart="1168" departSpeed="10" departLane="best"/>
   <vehicle id="W2E_161" type="ego_car" route="W2E" depart="1174" departSpeed="10" departLane="best"/>
   <vehicle id="E2W_162" type="ego_car" route="E2W" depart="1175" departSpeed="10" departLane="best"/>
   <vehicle id="E2W_163" type="ego_car" route="E2W" depart="1175" departSpeed="10" departLane="best"/>
   <vehicle id="E2W_164" type="ego_car" route="E2W" depart="1177" departSpeed="10" departLane="best"/>
   <vehicle id="W2E_165" type="ego_car" route="W2E" depart="1194" departSpeed="10" departLane="best"/>
   <vehicle id="W2E_166" type="ego_car" route="W2E" depart="1199" departSpeed="10" departLane="best"/>
   <vehicle id="E2W_167" type="ego_car" route="E2W" depart="1205" departSpeed="10" departLane="best"/>
   <vehicle id="E2W_168" type="ego_car" route="E2W" depart="1219" departSpeed="10" departLane="best"/>
   <vehicle id="W2E_169" type="ego_car" route="W2E" depart="1223" departSpeed="10" departLane="best"/>
   <vehicle id="E2W_170" type="ego_car" route="E2W" depart="1228" departSpeed="10" departLane="best"/>
   <vehicle id="E2W_171" type="ego_car" route="E2W" depart="1237" departSpeed="10" departLane="best"/>
   <vehicle id="W2E_172" type="ego_car" route="W2E" depart="1244" departSpeed="10" departLane="best"/>
   <vehicle id="E2W_173" type="ego_car" route="E2W" depart="1250" departSpeed="10" departLane="best"/>
   <vehicle id="E2W_174" type="ego_car" route="E2W" depart="1260" departSpeed="10" departLane="best"/>
   <vehicle id="E2W_175" type="ego_car" route="E2W" depart="1263" departSpeed="10" departLane="best"/>
   <vehicle id="E2W_176" type="ego_car" route="E2W" depart="1273" departSpeed="10" departLane="best"/>
   <vehicle id="E2W_177" type="ego_car" route="E2W" depart="1279" departSpeed="10" departLane="best"/>
   <vehicle id="W2E_178" type="ego_car" route="W2E" depart="1281" departSpeed="10" departLane="best"/>
   <vehicle id="E2W_179" type="ego_car" route="E2W" depart="1299" departSpeed="10" departLane="best"/>
   <vehicle id="W2E_180" type="ego_car" route="W2E" depart="1300" departSpeed="10" departLane="best"/>
   <vehicle id="E2W_181" type="ego_car" route="E2W" depart="1304" departSpeed="10" departLane="best"/>
   <vehicle id="E2W_182" type="ego_car" route="E2W" depart="1306" departSpeed="10" departLane="best"/>
   <vehicle id="E2W_183" type="ego_car" route="E2W" depart="1309" departSpeed="10" departLane="best"/>
   <vehicle id="W2E_184" type="ego_car" route="W2E" depart="1317" departSpeed="10" departLane="best"/>
   <vehicle id="E2W_185" type="ego_car" route="E2W" depart="1318" departSpeed="10" departLane="best"/>
   <vehicle id="W2E_186" type="ego_car" route="W2E" depart="1329" departSpeed="10" departLane="best"/>
   <vehicle id="W2E_187" type="ego_car" route="W2E" depart="1331" departSpeed="10" departLane="best"/>
   <vehicle id="W2E_188" type="ego_car" route="W2E" depart="1338" departSpeed="10" departLane="best"/>
   <vehicle id="E2W_189" type="ego_car" route="E2W" depart="1343" departSpeed="10" departLane="best"/>
   <vehicle id="W2E_190" type="ego_car" route="W2E" depart="1348" departSpeed="10" departLane="best"/>
   <vehicle id="E2W_191" type="ego_car" route="E2W" depart="1354" departSpeed="10" departLane="best"/>
   <vehicle id="W2E_192" type="ego_car" route="W2E" depart="1365" departSpeed="10" departLane="best"/>
   <vehicle id="W2E_193" type="ego_car" route="W2E" depart="1366" departSpeed="10" departLane="best"/>
   <vehicle id="W2E_194" type="ego_car" route="W2E" depart="1367" departSpeed="10" departLane="best"/>
   <vehicle id="E2W_195" type="ego_car" route="E2W" depart="1367" departSpeed="10" departLane="best"/>
   <vehicle id="W2E_196" type="ego_car" route="W2E" depart="1443" departSpeed="10" departLane="best"/>
   <vehicle id="W2E_197" type="ego_car" route="W2E" depart="1446" departSpeed="10" departLane="best"/>
   <vehicle id="E2W_198" type="ego_car" route="E2W" depart="1446" departSpeed="10" departLane="best"/>
   <vehicle id="W2E_199" type="ego_car" route="W2E" depart="1452" departSpeed="10" departLane="best"/>
   <vehicle id="E2W_200" type="ego_car" route="E2W" depart="1458" departSpeed="10" departLane="best"/>
   <vehicle id="E2W_201" type="ego_car" route="E2W" depart="1462" departSpeed="10" departLane="best"/>
   <vehicle id="W2E_202" type="ego_car" route="W2E" depart="1465" departSpeed="10" departLane="best"/>
   <vehicle id="W2E_203" type="ego_car" route="W2E" depart="1474" departSpeed="10" departLane="best"/>
   <vehicle id="W2E_204" type="ego_car" route="W2E" depart="1477" departSpeed="10" departLane="best"/>
   <vehicle id="E2W_205" type="ego_car" route="E2W" depart="1480" departSpeed="10" departLane="best"/>
   <vehicle id="W2E_206" type="ego_car" route="W2E" depart="1509" departSpeed="10" departLane="best"/>
   <vehicle id="E2W_207" type="ego_car" route="E2W" depart="1527" departSpeed="10" departLane="best"/>
   <vehicle id="W2E_208" type="ego_car" route="W2E" depart="1535" departSpeed="10" departLane="best"/>
   <vehicle id="W2E_209" type="ego_car" route="W2E" depart="1540" departSpeed="10" departLane="best"/>
   <vehicle id="E2W_210" type="ego_car" route="E2W" depart="1543" departSpeed="10" departLane="best"/>
   <vehicle id="W2E_211" type="ego_car" route="W2E" depart="1556" departSpeed="10" departLane="best"/>
   <vehicle id="E2W_212" type="ego_car" route="E2W" depart="1565" departSpeed="10" departLane="best"/>
   <vehicle id="W2E_213" type="ego_car" route="W2E" depart="1581" departSpeed="10" departLane="best"/>
   <vehicle id="E2W_214" type="ego_car" route="E2W" depart="1595" departSpeed="10" departLane="best"/>
   <vehicle id="E2W_215" type="ego_car" route="E2W" depart="1595" departSpeed="10" departLane="best"/>
   <vehicle id="E2W_216" type="ego_car" route="E2W" depart="1596" departSpeed="10" departLane="best"/>
   <vehicle id="W2E_217" type="ego_car" route="W2E" depart="1608" departSpeed="10" departLane="best"/>
   <vehicle id="E2W_218" type="ego_car" route="E2W" depart="1618" departSpeed="10" departLane="best"/>
   <vehicle id="E2W_219" type="ego_car" route="E2W" depart="1620" departSpeed="10" departLane="best"/>
   <vehicle id="E2W_220" type="ego_car" route="E2W" depart="1621" departSpeed="10" departLane="best"/>
   <vehicle id="W2E_221" type="ego_car" route="W2E" depart="1653" departSpeed="10" departLane="best"/>
   <vehicle id="W2E_222" type="ego_car" route="W2E" depart="1668" departSpeed="10" departLane="best"/>
   <vehicle id="W2E_223" type="ego_car" route="W2E" depart="1681" departSpeed="10" departLane="best"/>
   <vehicle id="W2E_224" type="ego_car" route="W2E" depart="1685" departSpeed="10" departLane="best"/>
   <vehicle id="W2E_225" type="ego_car" route="W2E" depart="1687" departSpeed="10" departLane="best"/>
   <vehicle id="E2W_226" type="ego_car" route="E2W" depart="1698" departSpeed="10" departLane="best"/>
   <vehicle id="E2W_227" type="ego_car" route="E2W" depart="1711" departSpeed="10" departLane="best"/>
   <vehicle id="W2E_228" type="ego_car" route="W2E" depart="1719" departSpeed="10" departLane="best"/>
   <vehicle id="E2W_229" type="ego_car" route="E2W" depart="1719" departSpeed="10" departLane="best"/>
   <vehicle id="E2W_230" type="ego_car" route="E2W" depart="1723" departSpeed="10" departLane="best"/>
   <vehicle id="W2E_231" type="ego_car" route="W2E" depart="1756" departSpeed="10" departLane="best"/>
   <vehicle id="E2W_232" type="ego_car" route="E2W" depart="1780" departSpeed="10" departLane="best"/>
   <vehicle id="W2E_233" type="ego_car" route="W2E" depart="1787" departSpeed="10" departLane="best"/>
   <vehicle id="W2E_234" type="ego_car" route="W2E" depart="1790" departSpeed="10" departLane="best"/>
   <vehicle id="W2E_235" type="ego_car" route="W2E" depart="1800" departSpeed="10" departLane="best"/>
   <vehicle id="W2E_236" type="ego_car" route="W2E" depart="1806" departSpeed="10" departLane="best"/>
   <vehicle id="W2E_237" type="ego_car" route="W2E" depart="1821" departSpeed="10" departLane="best"/>
   <vehicle id="E2W_238" type="ego_car" route="E2W" depart="1845" departSpeed="10" departLane="best"/>
   <vehicle id="W2E_239" type="ego_car" route="W2E" depart="1850" departSpeed="10" departLane="best"/>
   <vehicle id="W2E_240" type="ego_car" route="W2E" depart="1867" departSpeed="10" departLane="best"/>
   <vehicle id="E2W_241" type="ego_car" route="E2W" depart="1884" departSpeed="10" departLane="best"/>
   <vehicle id="W2E_242" type="ego_car" route="W2E" depart="1890" departSpeed="10" departLane="best"/>
   <vehicle id="E2W_243" type="ego_car" route="E2W" depart="1900" departSpeed="10" departLane="best"/>
   <vehicle id="E2W_244" type="ego_car" route="E2W" depart="1924" departSpeed="10" departLane="best"/>
   <vehicle id="E2W_245" type="ego_car" route="E2W" depart="1925" departSpeed="10" departLane="best"/>
   <vehicle id="E2W_246" type="ego_car" route="E2W" depart="1928" departSpeed="10" departLane="best"/>
   <vehicle id="E2W_247" type="ego_car" route="E2W" depart="1935" departSpeed="10" departLane="best"/>
   <vehicle id="W2E_248" type="ego_car" route="W2E" depart="1957" departSpeed="10" departLane="best"/>
   <vehicle id="W2E_249" type="ego_car" route="W2E" depart="2022" departSpeed="10" departLane="best"/>
   <vehicle id="W2E_250" type="ego_car" route="W2E" depart="2059" departSpeed="10" departLane="best"/>
   <vehicle id="W2E_251" type="ego_car" route="W2E" depart="2065" departSpeed="10" departLane="best"/>
   <vehicle id="W2E_252" type="ego_car" route="W2E" depart="2196" departSpeed="10" departLane="best"/>
   <vehicle id="W2E_253" type="ego_car" route="W2E" depart="2246" departSpeed="10" departLane="best"/>
   <vehicle id="E2W_254" type="ego_car" route="E2W" depart="2257" departSpeed="10" departLane="best"/>
   <vehicle id="W2E_255" type="ego_car" route="W2E" depart="2375" departSpeed="10" departLane="best"/>
   <vehicle id="W2E_256" type="ego_car" route="W2E" depart="2477" departSpeed="10" departLane="best"/>
   <vehicle id="W2E_257" type="ego_car" route="W2E" depart="2491" departSpeed="10" departLane="best"/>
   <vehicle id="E2W_258" type="ego_car" route="E2W" depart="2675" departSpeed="10" departLane="best"/>
   <vehicle id="E2W_259" type="ego_car" route="E2W" depart="3190" departSpeed="10" departLane="best"/>
   <vehicle id="E2W_260" type="ego_car" route="E2W" depart="3542" departSpeed="10" departLane="best"/>
</routes>
