<routes>

        <vType id = 'ego_car' vclass="evehicle" emissionClass="Energy/unknown" tau="1" accel="3.0" decel="3.0" color="#00FFFF" sigma="0.2" length="4.90" minGap="1" maxSpeed="20" guiShape="passenger">
            <param key="has.battery.device" value="true"/>
            <param key="maximumBatteryCapacity" value="38000"/> 
            <param key="maximumPower" value="200000"/>
            <param key="vehicleMass" value="1830"/>
            <param key="frontSurfaceArea" value="2.6"/>
            <param key="airDragCoefficient" value="0.35"/>
            <param key="internalMomentOfInertia" value="0.01"/>
            <param key="radialDragCoefficient" value="0.1"/>
            <param key="rollDragCoefficient" value="0.01"/>
            <param key="constantPowerIntake" value="100"/>
            <param key="propulsionEfficiency" value="0.9"/>
            <param key="recuperationEfficiency" value="0.9"/>
            <param key="stoppingThreshold" value="0.1"/>
        </vType>
        
        <route id="W2E" edges="WE0 WE1"/>
        <route id="E2W" edges="EW0 EW1"/>
   <vehicle id="W2E_1" type="ego_car" route="W2E" depart="58" departSpeed="10" departLane="best"/>
   <vehicle id="E2W_2" type="ego_car" route="E2W" depart="66" departSpeed="10" departLane="best"/>
   <vehicle id="E2W_3" type="ego_car" route="E2W" depart="73" departSpeed="10" departLane="best"/>
   <vehicle id="E2W_4" type="ego_car" route="E2W" depart="77" departSpeed="10" departLane="best"/>
   <vehicle id="W2E_5" type="ego_car" route="W2E" depart="114" departSpeed="10" departLane="best"/>
   <vehicle id="W2E_6" type="ego_car" route="W2E" depart="153" departSpeed="10" departLane="best"/>
   <vehicle id="W2E_7" type="ego_car" route="W2E" depart="165" departSpeed="10" departLane="best"/>
   <vehicle id="W2E_8" type="ego_car" route="W2E" depart="185" departSpeed="10" departLane="best"/>
   <vehicle id="W2E_9" type="ego_car" route="W2E" depart="186" departSpeed="10" departLane="best"/>
   <vehicle id="E2W_10" type="ego_car" route="E2W" depart="200" departSpeed="10" departLane="best"/>
   <vehicle id="E2W_11" type="ego_car" route="E2W" depart="205" departSpeed="10" departLane="best"/>
   <vehicle id="W2E_12" type="ego_car" route="W2E" depart="212" departSpeed="10" departLane="best"/>
   <vehicle id="E2W_13" type="ego_car" route="E2W" depart="241" departSpeed="10" departLane="best"/>
   <vehicle id="E2W_14" type="ego_car" route="E2W" depart="263" departSpeed="10" departLane="best"/>
   <vehicle id="W2E_15" type="ego_car" route="W2E" depart="267" departSpeed="10" departLane="best"/>
   <vehicle id="W2E_16" type="ego_car" route="W2E" depart="268" departSpeed="10" departLane="best"/>
   <vehicle id="W2E_17" type="ego_car" route="W2E" depart="286" departSpeed="10" departLane="best"/>
   <vehicle id="W2E_18" type="ego_car" route="W2E" depart="290" departSpeed="10" departLane="best"/>
   <vehicle id="E2W_19" type="ego_car" route="E2W" depart="295" departSpeed="10" departLane="best"/>
   <vehicle id="W2E_20" type="ego_car" route="W2E" depart="295" departSpeed="10" departLane="best"/>
   <vehicle id="E2W_21" type="ego_car" route="E2W" depart="301" departSpeed="10" departLane="best"/>
   <vehicle id="E2W_22" type="ego_car" route="E2W" depart="304" departSpeed="10" departLane="best"/>
   <vehicle id="E2W_23" type="ego_car" route="E2W" depart="308" departSpeed="10" departLane="best"/>
   <vehicle id="E2W_24" type="ego_car" route="E2W" depart="311" departSpeed="10" departLane="best"/>
   <vehicle id="W2E_25" type="ego_car" route="W2E" depart="311" departSpeed="10" departLane="best"/>
   <vehicle id="W2E_26" type="ego_car" route="W2E" depart="312" departSpeed="10" departLane="best"/>
   <vehicle id="W2E_27" type="ego_car" route="W2E" depart="312" departSpeed="10" departLane="best"/>
   <vehicle id="E2W_28" type="ego_car" route="E2W" depart="313" departSpeed="10" departLane="best"/>
   <vehicle id="E2W_29" type="ego_car" route="E2W" depart="318" departSpeed="10" departLane="best"/>
   <vehicle id="E2W_30" type="ego_car" route="E2W" depart="324" departSpeed="10" departLane="best"/>
   <vehicle id="W2E_31" type="ego_car" route="W2E" depart="332" departSpeed="10" departLane="best"/>
   <vehicle id="E2W_32" type="ego_car" route="E2W" depart="349" departSpeed="10" departLane="best"/>
   <vehicle id="E2W_33" type="ego_car" route="E2W" depart="353" departSpeed="10" departLane="best"/>
   <vehicle id="W2E_34" type="ego_car" route="W2E" depart="361" departSpeed="10" departLane="best"/>
   <vehicle id="E2W_35" type="ego_car" route="E2W" depart="378" departSpeed="10" departLane="best"/>
   <vehicle id="W2E_36" type="ego_car" route="W2E" depart="386" departSpeed="10" departLane="best"/>
   <vehicle id="E2W_37" type="ego_car" route="E2W" depart="390" departSpeed="10" departLane="best"/>
   <vehicle id="E2W_38" type="ego_car" route="E2W" depart="397" departSpeed="10" departLane="best"/>
   <vehicle id="W2E_39" type="ego_car" route="W2E" depart="398" departSpeed="10" departLane="best"/>
   <vehicle id="W2E_40" type="ego_car" route="W2E" depart="400" departSpeed="10" departLane="best"/>
   <vehicle id="E2W_41" type="ego_car" route="E2W" depart="402" departSpeed="10" departLane="best"/>
   <vehicle id="W2E_42" type="ego_car" route="W2E" depart="404" departSpeed="10" departLane="best"/>
   <vehicle id="E2W_43" type="ego_car" route="E2W" depart="411" departSpeed="10" departLane="best"/>
   <vehicle id="E2W_44" type="ego_car" route="E2W" depart="426" departSpeed="10" departLane="best"/>
   <vehicle id="W2E_45" type="ego_car" route="W2E" depart="435" departSpeed="10" departLane="best"/>
   <vehicle id="W2E_46" type="ego_car" route="W2E" depart="440" departSpeed="10" departLane="best"/>
   <vehicle id="E2W_47" type="ego_car" route="E2W" depart="447" departSpeed="10" departLane="best"/>
   <vehicle id="W2E_48" type="ego_car" route="W2E" depart="452" departSpeed="10" departLane="best"/>
   <vehicle id="W2E_49" type="ego_car" route="W2E" depart="460" departSpeed="10" departLane="best"/>
   <vehicle id="W2E_50" type="ego_car" route="W2E" depart="466" departSpeed="10" departLane="best"/>
   <vehicle id="E2W_51" type="ego_car" route="E2W" depart="469" departSpeed="10" departLane="best"/>
   <vehicle id="W2E_52" type="ego_car" route="W2E" depart="470" departSpeed="10" departLane="best"/>
   <vehicle id="W2E_53" type="ego_car" route="W2E" depart="475" departSpeed="10" departLane="best"/>
   <vehicle id="E2W_54" type="ego_car" route="E2W" depart="483" departSpeed="10" departLane="best"/>
   <vehicle id="W2E_55" type="ego_car" route="W2E" depart="494" departSpeed="10" departLane="best"/>
   <vehicle id="E2W_56" type="ego_car" route="E2W" depart="500" departSpeed="10" departLane="best"/>
   <vehicle id="E2W_57" type="ego_car" route="E2W" depart="514" departSpeed="10" departLane="best"/>
   <vehicle id="E2W_58" type="ego_car" route="E2W" depart="515" departSpeed="10" departLane="best"/>
   <vehicle id="W2E_59" type="ego_car" route="W2E" depart="521" departSpeed="10" departLane="best"/>
   <vehicle id="E2W_60" type="ego_car" route="E2W" depart="524" departSpeed="10" departLane="best"/>
   <vehicle id="W2E_61" type="ego_car" route="W2E" depart="546" departSpeed="10" departLane="best"/>
   <vehicle id="W2E_62" type="ego_car" route="W2E" depart="559" departSpeed="10" departLane="best"/>
   <vehicle id="E2W_63" type="ego_car" route="E2W" depart="560" departSpeed="10" departLane="best"/>
   <vehicle id="W2E_64" type="ego_car" route="W2E" depart="565" departSpeed="10" departLane="best"/>
   <vehicle id="E2W_65" type="ego_car" route="E2W" depart="584" departSpeed="10" departLane="best"/>
   <vehicle id="W2E_66" type="ego_car" route="W2E" depart="584" departSpeed="10" departLane="best"/>
   <vehicle id="W2E_67" type="ego_car" route="W2E" depart="586" departSpeed="10" departLane="best"/>
   <vehicle id="W2E_68" type="ego_car" route="W2E" depart="593" departSpeed="10" departLane="best"/>
   <vehicle id="E2W_69" type="ego_car" route="E2W" depart="599" departSpeed="10" departLane="best"/>
   <vehicle id="E2W_70" type="ego_car" route="E2W" depart="599" departSpeed="10" departLane="best"/>
   <vehicle id="E2W_71" type="ego_car" route="E2W" depart="600" departSpeed="10" departLane="best"/>
   <vehicle id="W2E_72" type="ego_car" route="W2E" depart="603" departSpeed="10" departLane="best"/>
   <vehicle id="W2E_73" type="ego_car" route="W2E" depart="607" departSpeed="10" departLane="best"/>
   <vehicle id="E2W_74" type="ego_car" route="E2W" depart="609" departSpeed="10" departLane="best"/>
   <vehicle id="W2E_75" type="ego_car" route="W2E" depart="609" departSpeed="10" departLane="best"/>
   <vehicle id="W2E_76" type="ego_car" route="W2E" depart="611" departSpeed="10" departLane="best"/>
   <vehicle id="E2W_77" type="ego_car" route="E2W" depart="619" departSpeed="10" departLane="best"/>
   <vehicle id="E2W_78" type="ego_car" route="E2W" depart="626" departSpeed="10" departLane="best"/>
   <vehicle id="E2W_79" type="ego_car" route="E2W" depart="640" departSpeed="10" departLane="best"/>
   <vehicle id="W2E_80" type="ego_car" route="W2E" depart="642" departSpeed="10" departLane="best"/>
   <vehicle id="E2W_81" type="ego_car" route="E2W" depart="643" departSpeed="10" departLane="best"/>
   <vehicle id="W2E_82" type="ego_car" route="W2E" depart="648" departSpeed="10" departLane="best"/>
   <vehicle id="W2E_83" type="ego_car" route="W2E" depart="650" departSpeed="10" departLane="best"/>
   <vehicle id="E2W_84" type="ego_car" route="E2W" depart="658" departSpeed="10" departLane="best"/>
   <vehicle id="E2W_85" type="ego_car" route="E2W" depart="660" departSpeed="10" departLane="best"/>
   <vehicle id="E2W_86" type="ego_car" route="E2W" depart="664" departSpeed="10" departLane="best"/>
   <vehicle id="W2E_87" type="ego_car" route="W2E" depart="670" departSpeed="10" departLane="best"/>
   <vehicle id="E2W_88" type="ego_car" route="E2W" depart="675" departSpeed="10" departLane="best"/>
   <vehicle id="E2W_89" type="ego_car" route="E2W" depart="679" departSpeed="10" departLane="best"/>
   <vehicle id="W2E_90" type="ego_car" route="W2E" depart="689" departSpeed="10" departLane="best"/>
   <vehicle id="W2E_91" type="ego_car" route="W2E" depart="696" departSpeed="10" departLane="best"/>
   <vehicle id="E2W_92" type="ego_car" route="E2W" depart="707" departSpeed="10" departLane="best"/>
   <vehicle id="W2E_93" type="ego_car" route="W2E" depart="711" departSpeed="10" departLane="best"/>
   <vehicle id="W2E_94" type="ego_car" route="W2E" depart="712" departSpeed="10" departLane="best"/>
   <vehicle id="E2W_95" type="ego_car" route="E2W" depart="718" departSpeed="10" departLane="best"/>
   <vehicle id="W2E_96" type="ego_car" route="W2E" depart="720" departSpeed="10" departLane="best"/>
   <vehicle id="W2E_97" type="ego_car" route="W2E" depart="728" departSpeed="10" departLane="best"/>
   <vehicle id="W2E_98" type="ego_car" route="W2E" depart="730" departSpeed="10" departLane="best"/>
   <vehicle id="W2E_99" type="ego_car" route="W2E" depart="737" departSpeed="10" departLane="best"/>
   <vehicle id="E2W_100" type="ego_car" route="E2W" depart="740" departSpeed="10" departLane="best"/>
   <vehicle id="E2W_101" type="ego_car" route="E2W" depart="743" departSpeed="10" departLane="best"/>
   <vehicle id="E2W_102" type="ego_car" route="E2W" depart="743" departSpeed="10" departLane="best"/>
   <vehicle id="E2W_103" type="ego_car" route="E2W" depart="744" departSpeed="10" departLane="best"/>
   <vehicle id="E2W_104" type="ego_car" route="E2W" depart="745" departSpeed="10" departLane="best"/>
   <vehicle id="E2W_105" type="ego_car" route="E2W" depart="747" departSpeed="10" departLane="best"/>
   <vehicle id="E2W_106" type="ego_car" route="E2W" depart="748" departSpeed="10" departLane="best"/>
   <vehicle id="W2E_107" type="ego_car" route="W2E" depart="750" departSpeed="10" departLane="best"/>
   <vehicle id="E2W_108" type="ego_car" route="E2W" depart="752" departSpeed="10" departLane="best"/>
   <vehicle id="W2E_109" type="ego_car" route="W2E" depart="755" departSpeed="10" departLane="best"/>
   <vehicle id="E2W_110" type="ego_car" route="E2W" depart="760" departSpeed="10" departLane="best"/>
   <vehicle id="W2E_111" type="ego_car" route="W2E" depart="764" departSpeed="10" departLane="best"/>
   <vehicle id="E2W_112" type="ego_car" route="E2W" depart="766" departSpeed="10" departLane="best"/>
   <vehicle id="W2E_113" type="ego_car" route="W2E" depart="768" departSpeed="10" departLane="best"/>
   <vehicle id="W2E_114" type="ego_car" route="W2E" depart="777" departSpeed="10" departLane="best"/>
   <vehicle id="E2W_115" type="ego_car" route="E2W" depart="779" departSpeed="10" departLane="best"/>
   <vehicle id="E2W_116" type="ego_car" route="E2W" depart="788" departSpeed="10" departLane="best"/>
   <vehicle id="W2E_117" type="ego_car" route="W2E" depart="791" departSpeed="10" departLane="best"/>
   <vehicle id="W2E_118" type="ego_car" route="W2E" depart="804" departSpeed="10" departLane="best"/>
   <vehicle id="E2W_119" type="ego_car" route="E2W" depart="805" departSpeed="10" departLane="best"/>
   <vehicle id="W2E_120" type="ego_car" route="W2E" depart="812" departSpeed="10" departLane="best"/>
   <vehicle id="W2E_121" type="ego_car" route="W2E" depart="820" departSpeed="10" departLane="best"/>
   <vehicle id="W2E_122" type="ego_car" route="W2E" depart="820" departSpeed="10" departLane="best"/>
   <vehicle id="E2W_123" type="ego_car" route="E2W" depart="826" departSpeed="10" departLane="best"/>
   <vehicle id="W2E_124" type="ego_car" route="W2E" depart="828" departSpeed="10" departLane="best"/>
   <vehicle id="W2E_125" type="ego_car" route="W2E" depart="832" departSpeed="10" departLane="best"/>
   <vehicle id="W2E_126" type="ego_car" route="W2E" depart="836" departSpeed="10" departLane="best"/>
   <vehicle id="W2E_127" type="ego_car" route="W2E" depart="839" departSpeed="10" departLane="best"/>
   <vehicle id="E2W_128" type="ego_car" route="E2W" depart="853" departSpeed="10" departLane="best"/>
   <vehicle id="W2E_129" type="ego_car" route="W2E" depart="853" departSpeed="10" departLane="best"/>
   <vehicle id="W2E_130" type="ego_car" route="W2E" depart="853" departSpeed="10" departLane="best"/>
   <vehicle id="E2W_131" type="ego_car" route="E2W" depart="858" departSpeed="10" departLane="best"/>
   <vehicle id="E2W_132" type="ego_car" route="E2W" depart="861" departSpeed="10" departLane="best"/>
   <vehicle id="E2W_133" type="ego_car" route="E2W" depart="861" departSpeed="10" departLane="best"/>
   <vehicle id="E2W_134" type="ego_car" route="E2W" depart="862" departSpeed="10" departLane="best"/>
   <vehicle id="W2E_135" type="ego_car" route="W2E" depart="872" departSpeed="10" departLane="best"/>
   <vehicle id="E2W_136" type="ego_car" route="E2W" depart="874" departSpeed="10" departLane="best"/>
   <vehicle id="E2W_137" type="ego_car" route="E2W" depart="874" departSpeed="10" departLane="best"/>
   <vehicle id="W2E_138" type="ego_car" route="W2E" depart="880" departSpeed="10" departLane="best"/>
   <vehicle id="W2E_139" type="ego_car" route="W2E" depart="883" departSpeed="10" departLane="best"/>
   <vehicle id="E2W_140" type="ego_car" route="E2W" depart="887" departSpeed="10" departLane="best"/>
   <vehicle id="W2E_141" type="ego_car" route="W2E" depart="887" departSpeed="10" departLane="best"/>
   <vehicle id="W2E_142" type="ego_car" route="W2E" depart="889" departSpeed="10" departLane="best"/>
   <vehicle id="E2W_143" type="ego_car" route="E2W" depart="891" departSpeed="10" departLane="best"/>
   <vehicle id="E2W_144" type="ego_car" route="E2W" depart="893" departSpeed="10" departLane="best"/>
   <vehicle id="E2W_145" type="ego_car" route="E2W" depart="894" departSpeed="10" departLane="best"/>
   <vehicle id="W2E_146" type="ego_car" route="W2E" depart="894" departSpeed="10" departLane="best"/>
   <vehicle id="E2W_147" type="ego_car" route="E2W" depart="901" departSpeed="10" departLane="best"/>
   <vehicle id="W2E_148" type="ego_car" route="W2E" depart="911" departSpeed="10" departLane="best"/>
   <vehicle id="E2W_149" type="ego_car" route="E2W" depart="914" departSpeed="10" departLane="best"/>
   <vehicle id="W2E_150" type="ego_car" route="W2E" depart="915" departSpeed="10" departLane="best"/>
   <vehicle id="W2E_151" type="ego_car" route="W2E" depart="917" departSpeed="10" departLane="best"/>
   <vehicle id="W2E_152" type="ego_car" route="W2E" depart="930" departSpeed="10" departLane="best"/>
   <vehicle id="W2E_153" type="ego_car" route="W2E" depart="936" departSpeed="10" departLane="best"/>
   <vehicle id="E2W_154" type="ego_car" route="E2W" depart="940" departSpeed="10" departLane="best"/>
   <vehicle id="E2W_155" type="ego_car" route="E2W" depart="940" departSpeed="10" departLane="best"/>
   <vehicle id="W2E_156" type="ego_car" route="W2E" depart="940" departSpeed="10" departLane="best"/>
   <vehicle id="W2E_157" type="ego_car" route="W2E" depart="940" departSpeed="10" departLane="best"/>
   <vehicle id="W2E_158" type="ego_car" route="W2E" depart="941" departSpeed="10" departLane="best"/>
   <vehicle id="W2E_159" type="ego_car" route="W2E" depart="945" departSpeed="10" departLane="best"/>
   <vehicle id="E2W_160" type="ego_car" route="E2W" depart="946" departSpeed="10" departLane="best"/>
   <vehicle id="W2E_161" type="ego_car" route="W2E" depart="951" departSpeed="10" departLane="best"/>
   <vehicle id="E2W_162" type="ego_car" route="E2W" depart="956" departSpeed="10" departLane="best"/>
   <vehicle id="E2W_163" type="ego_car" route="E2W" depart="957" departSpeed="10" departLane="best"/>
   <vehicle id="W2E_164" type="ego_car" route="W2E" depart="958" departSpeed="10" departLane="best"/>
   <vehicle id="W2E_165" type="ego_car" route="W2E" depart="964" departSpeed="10" departLane="best"/>
   <vehicle id="W2E_166" type="ego_car" route="W2E" depart="966" departSpeed="10" departLane="best"/>
   <vehicle id="E2W_167" type="ego_car" route="E2W" depart="967" departSpeed="10" departLane="best"/>
   <vehicle id="W2E_168" type="ego_car" route="W2E" depart="971" departSpeed="10" departLane="best"/>
   <vehicle id="W2E_169" type="ego_car" route="W2E" depart="976" departSpeed="10" departLane="best"/>
   <vehicle id="W2E_170" type="ego_car" route="W2E" depart="977" departSpeed="10" departLane="best"/>
   <vehicle id="W2E_171" type="ego_car" route="W2E" depart="991" departSpeed="10" departLane="best"/>
   <vehicle id="W2E_172" type="ego_car" route="W2E" depart="995" departSpeed="10" departLane="best"/>
   <vehicle id="E2W_173" type="ego_car" route="E2W" depart="999" departSpeed="10" departLane="best"/>
   <vehicle id="E2W_174" type="ego_car" route="E2W" depart="1003" departSpeed="10" departLane="best"/>
   <vehicle id="E2W_175" type="ego_car" route="E2W" depart="1010" departSpeed="10" departLane="best"/>
   <vehicle id="E2W_176" type="ego_car" route="E2W" depart="1023" departSpeed="10" departLane="best"/>
   <vehicle id="E2W_177" type="ego_car" route="E2W" depart="1035" departSpeed="10" departLane="best"/>
   <vehicle id="E2W_178" type="ego_car" route="E2W" depart="1036" departSpeed="10" departLane="best"/>
   <vehicle id="E2W_179" type="ego_car" route="E2W" depart="1044" departSpeed="10" departLane="best"/>
   <vehicle id="W2E_180" type="ego_car" route="W2E" depart="1044" departSpeed="10" departLane="best"/>
   <vehicle id="E2W_181" type="ego_car" route="E2W" depart="1049" departSpeed="10" departLane="best"/>
   <vehicle id="W2E_182" type="ego_car" route="W2E" depart="1050" departSpeed="10" departLane="best"/>
   <vehicle id="E2W_183" type="ego_car" route="E2W" depart="1051" departSpeed="10" departLane="best"/>
   <vehicle id="E2W_184" type="ego_car" route="E2W" depart="1057" departSpeed="10" departLane="best"/>
   <vehicle id="E2W_185" type="ego_car" route="E2W" depart="1057" departSpeed="10" departLane="best"/>
   <vehicle id="E2W_186" type="ego_car" route="E2W" depart="1058" departSpeed="10" departLane="best"/>
   <vehicle id="W2E_187" type="ego_car" route="W2E" depart="1063" departSpeed="10" departLane="best"/>
   <vehicle id="W2E_188" type="ego_car" route="W2E" depart="1064" departSpeed="10" departLane="best"/>
   <vehicle id="E2W_189" type="ego_car" route="E2W" depart="1070" departSpeed="10" departLane="best"/>
   <vehicle id="E2W_190" type="ego_car" route="E2W" depart="1074" departSpeed="10" departLane="best"/>
   <vehicle id="E2W_191" type="ego_car" route="E2W" depart="1084" departSpeed="10" departLane="best"/>
   <vehicle id="E2W_192" type="ego_car" route="E2W" depart="1102" departSpeed="10" departLane="best"/>
   <vehicle id="E2W_193" type="ego_car" route="E2W" depart="1102" departSpeed="10" departLane="best"/>
   <vehicle id="W2E_194" type="ego_car" route="W2E" depart="1106" departSpeed="10" departLane="best"/>
   <vehicle id="E2W_195" type="ego_car" route="E2W" depart="1106" departSpeed="10" departLane="best"/>
   <vehicle id="W2E_196" type="ego_car" route="W2E" depart="1108" departSpeed="10" departLane="best"/>
   <vehicle id="E2W_197" type="ego_car" route="E2W" depart="1116" departSpeed="10" departLane="best"/>
   <vehicle id="W2E_198" type="ego_car" route="W2E" depart="1134" departSpeed="10" departLane="best"/>
   <vehicle id="W2E_199" type="ego_car" route="W2E" depart="1148" departSpeed="10" departLane="best"/>
   <vehicle id="E2W_200" type="ego_car" route="E2W" depart="1148" departSpeed="10" departLane="best"/>
   <vehicle id="W2E_201" type="ego_car" route="W2E" depart="1159" departSpeed="10" departLane="best"/>
   <vehicle id="W2E_202" type="ego_car" route="W2E" depart="1166" departSpeed="10" departLane="best"/>
   <vehicle id="E2W_203" type="ego_car" route="E2W" depart="1176" departSpeed="10" departLane="best"/>
   <vehicle id="E2W_204" type="ego_car" route="E2W" depart="1177" departSpeed="10" departLane="best"/>
   <vehicle id="E2W_205" type="ego_car" route="E2W" depart="1182" departSpeed="10" departLane="best"/>
   <vehicle id="E2W_206" type="ego_car" route="E2W" depart="1185" departSpeed="10" departLane="best"/>
   <vehicle id="E2W_207" type="ego_car" route="E2W" depart="1185" departSpeed="10" departLane="best"/>
   <vehicle id="E2W_208" type="ego_car" route="E2W" depart="1192" departSpeed="10" departLane="best"/>
   <vehicle id="W2E_209" type="ego_car" route="W2E" depart="1198" departSpeed="10" departLane="best"/>
   <vehicle id="E2W_210" type="ego_car" route="E2W" depart="1208" departSpeed="10" departLane="best"/>
   <vehicle id="E2W_211" type="ego_car" route="E2W" depart="1217" departSpeed="10" departLane="best"/>
   <vehicle id="W2E_212" type="ego_car" route="W2E" depart="1231" departSpeed="10" departLane="best"/>
   <vehicle id="E2W_213" type="ego_car" route="E2W" depart="1238" departSpeed="10" departLane="best"/>
   <vehicle id="E2W_214" type="ego_car" route="E2W" depart="1261" departSpeed="10" departLane="best"/>
   <vehicle id="E2W_215" type="ego_car" route="E2W" depart="1264" departSpeed="10" departLane="best"/>
   <vehicle id="W2E_216" type="ego_car" route="W2E" depart="1270" departSpeed="10" departLane="best"/>
   <vehicle id="W2E_217" type="ego_car" route="W2E" depart="1290" departSpeed="10" departLane="best"/>
   <vehicle id="W2E_218" type="ego_car" route="W2E" depart="1310" departSpeed="10" departLane="best"/>
   <vehicle id="W2E_219" type="ego_car" route="W2E" depart="1322" departSpeed="10" departLane="best"/>
   <vehicle id="W2E_220" type="ego_car" route="W2E" depart="1329" departSpeed="10" departLane="best"/>
   <vehicle id="W2E_221" type="ego_car" route="W2E" depart="1330" departSpeed="10" departLane="best"/>
   <vehicle id="E2W_222" type="ego_car" route="E2W" depart="1331" departSpeed="10" departLane="best"/>
   <vehicle id="W2E_223" type="ego_car" route="W2E" depart="1332" departSpeed="10" departLane="best"/>
   <vehicle id="W2E_224" type="ego_car" route="W2E" depart="1334" departSpeed="10" departLane="best"/>
   <vehicle id="W2E_225" type="ego_car" route="W2E" depart="1342" departSpeed="10" departLane="best"/>
   <vehicle id="W2E_226" type="ego_car" route="W2E" depart="1343" departSpeed="10" departLane="best"/>
   <vehicle id="W2E_227" type="ego_car" route="W2E" depart="1347" departSpeed="10" departLane="best"/>
   <vehicle id="W2E_228" type="ego_car" route="W2E" depart="1353" departSpeed="10" departLane="best"/>
   <vehicle id="E2W_229" type="ego_car" route="E2W" depart="1369" departSpeed="10" departLane="best"/>
   <vehicle id="E2W_230" type="ego_car" route="E2W" depart="1387" departSpeed="10" departLane="best"/>
   <vehicle id="E2W_231" type="ego_car" route="E2W" depart="1387" departSpeed="10" departLane="best"/>
   <vehicle id="E2W_232" type="ego_car" route="E2W" depart="1405" departSpeed="10" departLane="best"/>
   <vehicle id="E2W_233" type="ego_car" route="E2W" depart="1405" departSpeed="10" departLane="best"/>
   <vehicle id="E2W_234" type="ego_car" route="E2W" depart="1418" departSpeed="10" departLane="best"/>
   <vehicle id="W2E_235" type="ego_car" route="W2E" depart="1424" departSpeed="10" departLane="best"/>
   <vehicle id="E2W_236" type="ego_car" route="E2W" depart="1436" departSpeed="10" departLane="best"/>
   <vehicle id="W2E_237" type="ego_car" route="W2E" depart="1452" departSpeed="10" departLane="best"/>
   <vehicle id="E2W_238" type="ego_car" route="E2W" depart="1458" departSpeed="10" departLane="best"/>
   <vehicle id="E2W_239" type="ego_car" route="E2W" depart="1464" departSpeed="10" departLane="best"/>
   <vehicle id="W2E_240" type="ego_car" route="W2E" depart="1471" departSpeed="10" departLane="best"/>
   <vehicle id="E2W_241" type="ego_car" route="E2W" depart="1472" departSpeed="10" departLane="best"/>
   <vehicle id="E2W_242" type="ego_car" route="E2W" depart="1473" departSpeed="10" departLane="best"/>
   <vehicle id="E2W_243" type="ego_car" route="E2W" depart="1484" departSpeed="10" departLane="best"/>
   <vehicle id="E2W_244" type="ego_car" route="E2W" depart="1486" departSpeed="10" departLane="best"/>
   <vehicle id="E2W_245" type="ego_car" route="E2W" depart="1498" departSpeed="10" departLane="best"/>
   <vehicle id="W2E_246" type="ego_car" route="W2E" depart="1501" departSpeed="10" departLane="best"/>
   <vehicle id="W2E_247" type="ego_car" route="W2E" depart="1522" departSpeed="10" departLane="best"/>
   <vehicle id="E2W_248" type="ego_car" route="E2W" depart="1528" departSpeed="10" departLane="best"/>
   <vehicle id="E2W_249" type="ego_car" route="E2W" depart="1529" departSpeed="10" departLane="best"/>
   <vehicle id="E2W_250" type="ego_car" route="E2W" depart="1537" departSpeed="10" departLane="best"/>
   <vehicle id="E2W_251" type="ego_car" route="E2W" depart="1541" departSpeed="10" departLane="best"/>
   <vehicle id="E2W_252" type="ego_car" route="E2W" depart="1546" departSpeed="10" departLane="best"/>
   <vehicle id="W2E_253" type="ego_car" route="W2E" depart="1557" departSpeed="10" departLane="best"/>
   <vehicle id="E2W_254" type="ego_car" route="E2W" depart="1560" departSpeed="10" departLane="best"/>
   <vehicle id="W2E_255" type="ego_car" route="W2E" depart="1561" departSpeed="10" departLane="best"/>
   <vehicle id="W2E_256" type="ego_car" route="W2E" depart="1562" departSpeed="10" departLane="best"/>
   <vehicle id="W2E_257" type="ego_car" route="W2E" depart="1576" departSpeed="10" departLane="best"/>
   <vehicle id="W2E_258" type="ego_car" route="W2E" depart="1586" departSpeed="10" departLane="best"/>
   <vehicle id="W2E_259" type="ego_car" route="W2E" depart="1608" departSpeed="10" departLane="best"/>
   <vehicle id="W2E_260" type="ego_car" route="W2E" depart="1609" departSpeed="10" departLane="best"/>
   <vehicle id="W2E_261" type="ego_car" route="W2E" depart="1625" departSpeed="10" departLane="best"/>
   <vehicle id="E2W_262" type="ego_car" route="E2W" depart="1645" departSpeed="10" departLane="best"/>
   <vehicle id="E2W_263" type="ego_car" route="E2W" depart="1649" departSpeed="10" departLane="best"/>
   <vehicle id="E2W_264" type="ego_car" route="E2W" depart="1673" departSpeed="10" departLane="best"/>
   <vehicle id="W2E_265" type="ego_car" route="W2E" depart="1691" departSpeed="10" departLane="best"/>
   <vehicle id="W2E_266" type="ego_car" route="W2E" depart="1719" departSpeed="10" departLane="best"/>
   <vehicle id="E2W_267" type="ego_car" route="E2W" depart="1731" departSpeed="10" departLane="best"/>
   <vehicle id="E2W_268" type="ego_car" route="E2W" depart="1734" departSpeed="10" departLane="best"/>
   <vehicle id="W2E_269" type="ego_car" route="W2E" depart="1743" departSpeed="10" departLane="best"/>
   <vehicle id="W2E_270" type="ego_car" route="W2E" depart="1754" departSpeed="10" departLane="best"/>
   <vehicle id="W2E_271" type="ego_car" route="W2E" depart="1770" departSpeed="10" departLane="best"/>
   <vehicle id="W2E_272" type="ego_car" route="W2E" depart="1772" departSpeed="10" departLane="best"/>
   <vehicle id="W2E_273" type="ego_car" route="W2E" depart="1778" departSpeed="10" departLane="best"/>
   <vehicle id="W2E_274" type="ego_car" route="W2E" depart="1786" departSpeed="10" departLane="best"/>
   <vehicle id="E2W_275" type="ego_car" route="E2W" depart="1790" departSpeed="10" departLane="best"/>
   <vehicle id="W2E_276" type="ego_car" route="W2E" depart="1807" departSpeed="10" departLane="best"/>
   <vehicle id="W2E_277" type="ego_car" route="W2E" depart="1816" departSpeed="10" departLane="best"/>
   <vehicle id="E2W_278" type="ego_car" route="E2W" depart="1828" departSpeed="10" departLane="best"/>
   <vehicle id="W2E_279" type="ego_car" route="W2E" depart="1846" departSpeed="10" departLane="best"/>
   <vehicle id="W2E_280" type="ego_car" route="W2E" depart="1855" departSpeed="10" departLane="best"/>
   <vehicle id="E2W_281" type="ego_car" route="E2W" depart="1861" departSpeed="10" departLane="best"/>
   <vehicle id="W2E_282" type="ego_car" route="W2E" depart="1884" departSpeed="10" departLane="best"/>
   <vehicle id="W2E_283" type="ego_car" route="W2E" depart="1892" departSpeed="10" departLane="best"/>