<routes>

        <vType id = 'ego_car' vclass="evehicle" emissionClass="Energy/unknown" tau="1" accel="3.0" decel="3.0" color="#00FFFF" sigma="0.2" length="4.90" minGap="1" maxSpeed="20" guiShape="passenger">
            <param key="has.battery.device" value="true"/>
            <param key="maximumBatteryCapacity" value="38000"/> 
            <param key="maximumPower" value="200000"/>
            <param key="vehicleMass" value="1830"/>
            <param key="frontSurfaceArea" value="2.6"/>
            <param key="airDragCoefficient" value="0.35"/>
            <param key="internalMomentOfInertia" value="0.01"/>
            <param key="radialDragCoefficient" value="0.1"/>
            <param key="rollDragCoefficient" value="0.01"/>
            <param key="constantPowerIntake" value="100"/>
            <param key="propulsionEfficiency" value="0.9"/>
            <param key="recuperationEfficiency" value="0.9"/>
            <param key="stoppingThreshold" value="0.1"/>
        </vType>
        
        <route id="W2E" edges="WE0 WE1"/>
        <route id="E2W" edges="EW0 EW1"/>
   <vehicle id="E2W_1" type="ego_car" route="E2W" depart="46" departSpeed="10" departLane="best"/>
   <vehicle id="E2W_2" type="ego_car" route="E2W" depart="59" departSpeed="10" departLane="best"/>
   <vehicle id="E2W_3" type="ego_car" route="E2W" depart="89" departSpeed="10" departLane="best"/>
   <vehicle id="W2E_4" type="ego_car" route="W2E" depart="94" departSpeed="10" departLane="best"/>
   <vehicle id="E2W_5" type="ego_car" route="E2W" depart="99" departSpeed="10" departLane="best"/>
   <vehicle id="E2W_6" type="ego_car" route="E2W" depart="105" departSpeed="10" departLane="best"/>
   <vehicle id="W2E_7" type="ego_car" route="W2E" depart="130" departSpeed="10" departLane="best"/>
   <vehicle id="E2W_8" type="ego_car" route="E2W" depart="142" departSpeed="10" departLane="best"/>
   <vehicle id="W2E_9" type="ego_car" route="W2E" depart="157" departSpeed="10" departLane="best"/>
   <vehicle id="E2W_10" type="ego_car" route="E2W" depart="182" departSpeed="10" departLane="best"/>
   <vehicle id="E2W_11" type="ego_car" route="E2W" depart="200" departSpeed="10" departLane="best"/>
   <vehicle id="E2W_12" type="ego_car" route="E2W" depart="206" departSpeed="10" departLane="best"/>
   <vehicle id="E2W_13" type="ego_car" route="E2W" depart="218" departSpeed="10" departLane="best"/>
   <vehicle id="W2E_14" type="ego_car" route="W2E" depart="230" departSpeed="10" departLane="best"/>
   <vehicle id="E2W_15" type="ego_car" route="E2W" depart="232" departSpeed="10" departLane="best"/>
   <vehicle id="E2W_16" type="ego_car" route="E2W" depart="238" departSpeed="10" departLane="best"/>
   <vehicle id="E2W_17" type="ego_car" route="E2W" depart="246" departSpeed="10" departLane="best"/>
   <vehicle id="E2W_18" type="ego_car" route="E2W" depart="266" departSpeed="10" departLane="best"/>
   <vehicle id="E2W_19" type="ego_car" route="E2W" depart="267" departSpeed="10" departLane="best"/>
   <vehicle id="E2W_20" type="ego_car" route="E2W" depart="273" departSpeed="10" departLane="best"/>
   <vehicle id="E2W_21" type="ego_car" route="E2W" depart="284" departSpeed="10" departLane="best"/>
   <vehicle id="E2W_22" type="ego_car" route="E2W" depart="284" departSpeed="10" departLane="best"/>
   <vehicle id="E2W_23" type="ego_car" route="E2W" depart="292" departSpeed="10" departLane="best"/>
   <vehicle id="W2E_24" type="ego_car" route="W2E" depart="295" departSpeed="10" departLane="best"/>
   <vehicle id="W2E_25" type="ego_car" route="W2E" depart="296" departSpeed="10" departLane="best"/>
   <vehicle id="E2W_26" type="ego_car" route="E2W" depart="297" departSpeed="10" departLane="best"/>
   <vehicle id="E2W_27" type="ego_car" route="E2W" depart="306" departSpeed="10" departLane="best"/>
   <vehicle id="W2E_28" type="ego_car" route="W2E" depart="333" departSpeed="10" departLane="best"/>
   <vehicle id="E2W_29" type="ego_car" route="E2W" depart="333" departSpeed="10" departLane="best"/>
   <vehicle id="W2E_30" type="ego_car" route="W2E" depart="345" departSpeed="10" departLane="best"/>
   <vehicle id="W2E_31" type="ego_car" route="W2E" depart="345" departSpeed="10" departLane="best"/>
   <vehicle id="E2W_32" type="ego_car" route="E2W" depart="346" departSpeed="10" departLane="best"/>
   <vehicle id="W2E_33" type="ego_car" route="W2E" depart="351" departSpeed="10" departLane="best"/>
   <vehicle id="E2W_34" type="ego_car" route="E2W" depart="358" departSpeed="10" departLane="best"/>
   <vehicle id="W2E_35" type="ego_car" route="W2E" depart="367" departSpeed="10" departLane="best"/>
   <vehicle id="W2E_36" type="ego_car" route="W2E" depart="374" departSpeed="10" departLane="best"/>
   <vehicle id="W2E_37" type="ego_car" route="W2E" depart="380" departSpeed="10" departLane="best"/>
   <vehicle id="W2E_38" type="ego_car" route="W2E" depart="395" departSpeed="10" departLane="best"/>
   <vehicle id="E2W_39" type="ego_car" route="E2W" depart="395" departSpeed="10" departLane="best"/>
   <vehicle id="W2E_40" type="ego_car" route="W2E" depart="396" departSpeed="10" departLane="best"/>
   <vehicle id="W2E_41" type="ego_car" route="W2E" depart="418" departSpeed="10" departLane="best"/>
   <vehicle id="W2E_42" type="ego_car" route="W2E" depart="434" departSpeed="10" departLane="best"/>
   <vehicle id="E2W_43" type="ego_car" route="E2W" depart="438" departSpeed="10" departLane="best"/>
   <vehicle id="E2W_44" type="ego_car" route="E2W" depart="445" departSpeed="10" departLane="best"/>
   <vehicle id="E2W_45" type="ego_car" route="E2W" depart="447" departSpeed="10" departLane="best"/>
   <vehicle id="E2W_46" type="ego_car" route="E2W" depart="449" departSpeed="10" departLane="best"/>
   <vehicle id="W2E_47" type="ego_car" route="W2E" depart="455" departSpeed="10" departLane="best"/>
   <vehicle id="E2W_48" type="ego_car" route="E2W" depart="455" departSpeed="10" departLane="best"/>
   <vehicle id="E2W_49" type="ego_car" route="E2W" depart="459" departSpeed="10" departLane="best"/>
   <vehicle id="E2W_50" type="ego_car" route="E2W" depart="469" departSpeed="10" departLane="best"/>
   <vehicle id="E2W_51" type="ego_car" route="E2W" depart="473" departSpeed="10" departLane="best"/>
   <vehicle id="W2E_52" type="ego_car" route="W2E" depart="478" departSpeed="10" departLane="best"/>
   <vehicle id="W2E_53" type="ego_car" route="W2E" depart="488" departSpeed="10" departLane="best"/>
   <vehicle id="E2W_54" type="ego_car" route="E2W" depart="488" departSpeed="10" departLane="best"/>
   <vehicle id="W2E_55" type="ego_car" route="W2E" depart="495" departSpeed="10" departLane="best"/>
   <vehicle id="W2E_56" type="ego_car" route="W2E" depart="496" departSpeed="10" departLane="best"/>
   <vehicle id="W2E_57" type="ego_car" route="W2E" depart="499" departSpeed="10" departLane="best"/>
   <vehicle id="W2E_58" type="ego_car" route="W2E" depart="503" departSpeed="10" departLane="best"/>
   <vehicle id="W2E_59" type="ego_car" route="W2E" depart="507" departSpeed="10" departLane="best"/>
   <vehicle id="W2E_60" type="ego_car" route="W2E" depart="508" departSpeed="10" departLane="best"/>
   <vehicle id="W2E_61" type="ego_car" route="W2E" depart="508" departSpeed="10" departLane="best"/>
   <vehicle id="W2E_62" type="ego_car" route="W2E" depart="510" departSpeed="10" departLane="best"/>
   <vehicle id="E2W_63" type="ego_car" route="E2W" depart="520" departSpeed="10" departLane="best"/>
   <vehicle id="W2E_64" type="ego_car" route="W2E" depart="528" departSpeed="10" departLane="best"/>
   <vehicle id="W2E_65" type="ego_car" route="W2E" depart="528" departSpeed="10" departLane="best"/>
   <vehicle id="W2E_66" type="ego_car" route="W2E" depart="537" departSpeed="10" departLane="best"/>
   <vehicle id="W2E_67" type="ego_car" route="W2E" depart="547" departSpeed="10" departLane="best"/>
   <vehicle id="W2E_68" type="ego_car" route="W2E" depart="557" departSpeed="10" departLane="best"/>
   <vehicle id="E2W_69" type="ego_car" route="E2W" depart="570" departSpeed="10" departLane="best"/>
   <vehicle id="E2W_70" type="ego_car" route="E2W" depart="573" departSpeed="10" departLane="best"/>
   <vehicle id="E2W_71" type="ego_car" route="E2W" depart="576" departSpeed="10" departLane="best"/>
   <vehicle id="E2W_72" type="ego_car" route="E2W" depart="576" departSpeed="10" departLane="best"/>
   <vehicle id="E2W_73" type="ego_car" route="E2W" depart="577" departSpeed="10" departLane="best"/>
   <vehicle id="E2W_74" type="ego_car" route="E2W" depart="579" departSpeed="10" departLane="best"/>
   <vehicle id="W2E_75" type="ego_car" route="W2E" depart="588" departSpeed="10" departLane="best"/>
   <vehicle id="E2W_76" type="ego_car" route="E2W" depart="588" departSpeed="10" departLane="best"/>
   <vehicle id="W2E_77" type="ego_car" route="W2E" depart="598" departSpeed="10" departLane="best"/>
   <vehicle id="E2W_78" type="ego_car" route="E2W" depart="603" departSpeed="10" departLane="best"/>
   <vehicle id="W2E_79" type="ego_car" route="W2E" depart="604" departSpeed="10" departLane="best"/>
   <vehicle id="W2E_80" type="ego_car" route="W2E" depart="608" departSpeed="10" departLane="best"/>
   <vehicle id="E2W_81" type="ego_car" route="E2W" depart="614" departSpeed="10" departLane="best"/>
   <vehicle id="W2E_82" type="ego_car" route="W2E" depart="619" departSpeed="10" departLane="best"/>
   <vehicle id="E2W_83" type="ego_car" route="E2W" depart="630" departSpeed="10" departLane="best"/>
   <vehicle id="W2E_84" type="ego_car" route="W2E" depart="644" departSpeed="10" departLane="best"/>
   <vehicle id="W2E_85" type="ego_car" route="W2E" depart="645" departSpeed="10" departLane="best"/>
   <vehicle id="W2E_86" type="ego_car" route="W2E" depart="656" departSpeed="10" departLane="best"/>
   <vehicle id="E2W_87" type="ego_car" route="E2W" depart="659" departSpeed="10" departLane="best"/>
   <vehicle id="W2E_88" type="ego_car" route="W2E" depart="663" departSpeed="10" departLane="best"/>
   <vehicle id="E2W_89" type="ego_car" route="E2W" depart="674" departSpeed="10" departLane="best"/>
   <vehicle id="W2E_90" type="ego_car" route="W2E" depart="681" departSpeed="10" departLane="best"/>
   <vehicle id="E2W_91" type="ego_car" route="E2W" depart="684" departSpeed="10" departLane="best"/>
   <vehicle id="E2W_92" type="ego_car" route="E2W" depart="684" departSpeed="10" departLane="best"/>
   <vehicle id="W2E_93" type="ego_car" route="W2E" depart="685" departSpeed="10" departLane="best"/>
   <vehicle id="E2W_94" type="ego_car" route="E2W" depart="705" departSpeed="10" departLane="best"/>
   <vehicle id="E2W_95" type="ego_car" route="E2W" depart="707" departSpeed="10" departLane="best"/>
   <vehicle id="W2E_96" type="ego_car" route="W2E" depart="713" departSpeed="10" departLane="best"/>
   <vehicle id="E2W_97" type="ego_car" route="E2W" depart="713" departSpeed="10" departLane="best"/>
   <vehicle id="W2E_98" type="ego_car" route="W2E" depart="714" departSpeed="10" departLane="best"/>
   <vehicle id="E2W_99" type="ego_car" route="E2W" depart="720" departSpeed="10" departLane="best"/>
   <vehicle id="W2E_100" type="ego_car" route="W2E" depart="729" departSpeed="10" departLane="best"/>
   <vehicle id="E2W_101" type="ego_car" route="E2W" depart="730" departSpeed="10" departLane="best"/>
   <vehicle id="E2W_102" type="ego_car" route="E2W" depart="732" departSpeed="10" departLane="best"/>
   <vehicle id="E2W_103" type="ego_car" route="E2W" depart="734" departSpeed="10" departLane="best"/>
   <vehicle id="E2W_104" type="ego_car" route="E2W" depart="748" departSpeed="10" departLane="best"/>
   <vehicle id="W2E_105" type="ego_car" route="W2E" depart="753" departSpeed="10" departLane="best"/>
   <vehicle id="E2W_106" type="ego_car" route="E2W" depart="755" departSpeed="10" departLane="best"/>
   <vehicle id="E2W_107" type="ego_car" route="E2W" depart="756" departSpeed="10" departLane="best"/>
   <vehicle id="W2E_108" type="ego_car" route="W2E" depart="758" departSpeed="10" departLane="best"/>
   <vehicle id="W2E_109" type="ego_car" route="W2E" depart="762" departSpeed="10" departLane="best"/>
   <vehicle id="W2E_110" type="ego_car" route="W2E" depart="767" departSpeed="10" departLane="best"/>
   <vehicle id="W2E_111" type="ego_car" route="W2E" depart="776" departSpeed="10" departLane="best"/>
   <vehicle id="W2E_112" type="ego_car" route="W2E" depart="779" departSpeed="10" departLane="best"/>
   <vehicle id="W2E_113" type="ego_car" route="W2E" depart="785" departSpeed="10" departLane="best"/>
   <vehicle id="W2E_114" type="ego_car" route="W2E" depart="790" departSpeed="10" departLane="best"/>
   <vehicle id="W2E_115" type="ego_car" route="W2E" depart="793" departSpeed="10" departLane="best"/>
   <vehicle id="E2W_116" type="ego_car" route="E2W" depart="797" departSpeed="10" departLane="best"/>
   <vehicle id="W2E_117" type="ego_car" route="W2E" depart="798" departSpeed="10" departLane="best"/>
   <vehicle id="W2E_118" type="ego_car" route="W2E" depart="799" departSpeed="10" departLane="best"/>
   <vehicle id="E2W_119" type="ego_car" route="E2W" depart="800" departSpeed="10" departLane="best"/>
   <vehicle id="E2W_120" type="ego_car" route="E2W" depart="811" departSpeed="10" departLane="best"/>
   <vehicle id="E2W_121" type="ego_car" route="E2W" depart="820" departSpeed="10" departLane="best"/>
   <vehicle id="W2E_122" type="ego_car" route="W2E" depart="821" departSpeed="10" departLane="best"/>
   <vehicle id="W2E_123" type="ego_car" route="W2E" depart="831" departSpeed="10" departLane="best"/>
   <vehicle id="E2W_124" type="ego_car" route="E2W" depart="831" departSpeed="10" departLane="best"/>
   <vehicle id="W2E_125" type="ego_car" route="W2E" depart="832" departSpeed="10" departLane="best"/>
   <vehicle id="W2E_126" type="ego_car" route="W2E" depart="833" departSpeed="10" departLane="best"/>
   <vehicle id="E2W_127" type="ego_car" route="E2W" depart="838" departSpeed="10" departLane="best"/>
   <vehicle id="E2W_128" type="ego_car" route="E2W" depart="842" departSpeed="10" departLane="best"/>
   <vehicle id="W2E_129" type="ego_car" route="W2E" depart="843" departSpeed="10" departLane="best"/>
   <vehicle id="W2E_130" type="ego_car" route="W2E" depart="850" departSpeed="10" departLane="best"/>
   <vehicle id="W2E_131" type="ego_car" route="W2E" depart="855" departSpeed="10" departLane="best"/>
   <vehicle id="E2W_132" type="ego_car" route="E2W" depart="861" departSpeed="10" departLane="best"/>
   <vehicle id="E2W_133" type="ego_car" route="E2W" depart="875" departSpeed="10" departLane="best"/>
   <vehicle id="E2W_134" type="ego_car" route="E2W" depart="876" departSpeed="10" departLane="best"/>
   <vehicle id="W2E_135" type="ego_car" route="W2E" depart="879" departSpeed="10" departLane="best"/>
   <vehicle id="W2E_136" type="ego_car" route="W2E" depart="886" departSpeed="10" departLane="best"/>
   <vehicle id="W2E_137" type="ego_car" route="W2E" depart="892" departSpeed="10" departLane="best"/>
   <vehicle id="E2W_138" type="ego_car" route="E2W" depart="892" departSpeed="10" departLane="best"/>
   <vehicle id="W2E_139" type="ego_car" route="W2E" depart="896" departSpeed="10" departLane="best"/>
   <vehicle id="W2E_140" type="ego_car" route="W2E" depart="898" departSpeed="10" departLane="best"/>
   <vehicle id="E2W_141" type="ego_car" route="E2W" depart="900" departSpeed="10" departLane="best"/>
   <vehicle id="E2W_142" type="ego_car" route="E2W" depart="905" departSpeed="10" departLane="best"/>
   <vehicle id="E2W_143" type="ego_car" route="E2W" depart="909" departSpeed="10" departLane="best"/>
   <vehicle id="W2E_144" type="ego_car" route="W2E" depart="917" departSpeed="10" departLane="best"/>
   <vehicle id="E2W_145" type="ego_car" route="E2W" depart="920" departSpeed="10" departLane="best"/>
   <vehicle id="W2E_146" type="ego_car" route="W2E" depart="928" departSpeed="10" departLane="best"/>
   <vehicle id="W2E_147" type="ego_car" route="W2E" depart="928" departSpeed="10" departLane="best"/>
   <vehicle id="E2W_148" type="ego_car" route="E2W" depart="934" departSpeed="10" departLane="best"/>
   <vehicle id="E2W_149" type="ego_car" route="E2W" depart="938" departSpeed="10" departLane="best"/>
   <vehicle id="W2E_150" type="ego_car" route="W2E" depart="939" departSpeed="10" departLane="best"/>
   <vehicle id="E2W_151" type="ego_car" route="E2W" depart="939" departSpeed="10" departLane="best"/>
   <vehicle id="E2W_152" type="ego_car" route="E2W" depart="942" departSpeed="10" departLane="best"/>
   <vehicle id="W2E_153" type="ego_car" route="W2E" depart="948" departSpeed="10" departLane="best"/>
   <vehicle id="E2W_154" type="ego_car" route="E2W" depart="949" departSpeed="10" departLane="best"/>
   <vehicle id="E2W_155" type="ego_car" route="E2W" depart="963" departSpeed="10" departLane="best"/>
   <vehicle id="W2E_156" type="ego_car" route="W2E" depart="984" departSpeed="10" departLane="best"/>
   <vehicle id="E2W_157" type="ego_car" route="E2W" depart="990" departSpeed="10" departLane="best"/>
   <vehicle id="E2W_158" type="ego_car" route="E2W" depart="992" departSpeed="10" departLane="best"/>
   <vehicle id="E2W_159" type="ego_car" route="E2W" depart="994" departSpeed="10" departLane="best"/>
   <vehicle id="W2E_160" type="ego_car" route="W2E" depart="997" departSpeed="10" departLane="best"/>
   <vehicle id="W2E_161" type="ego_car" route="W2E" depart="998" departSpeed="10" departLane="best"/>
   <vehicle id="W2E_162" type="ego_car" route="W2E" depart="1004" departSpeed="10" departLane="best"/>
   <vehicle id="E2W_163" type="ego_car" route="E2W" depart="1012" departSpeed="10" departLane="best"/>
   <vehicle id="E2W_164" type="ego_car" route="E2W" depart="1015" departSpeed="10" departLane="best"/>
   <vehicle id="W2E_165" type="ego_car" route="W2E" depart="1024" departSpeed="10" departLane="best"/>
   <vehicle id="E2W_166" type="ego_car" route="E2W" depart="1026" departSpeed="10" departLane="best"/>
   <vehicle id="E2W_167" type="ego_car" route="E2W" depart="1029" departSpeed="10" departLane="best"/>
   <vehicle id="W2E_168" type="ego_car" route="W2E" depart="1038" departSpeed="10" departLane="best"/>
   <vehicle id="E2W_169" type="ego_car" route="E2W" depart="1039" departSpeed="10" departLane="best"/>
   <vehicle id="W2E_170" type="ego_car" route="W2E" depart="1050" departSpeed="10" departLane="best"/>
   <vehicle id="E2W_171" type="ego_car" route="E2W" depart="1053" departSpeed="10" departLane="best"/>
   <vehicle id="W2E_172" type="ego_car" route="W2E" depart="1059" departSpeed="10" departLane="best"/>
   <vehicle id="E2W_173" type="ego_car" route="E2W" depart="1072" departSpeed="10" departLane="best"/>
   <vehicle id="W2E_174" type="ego_car" route="W2E" depart="1073" departSpeed="10" departLane="best"/>
   <vehicle id="W2E_175" type="ego_car" route="W2E" depart="1075" departSpeed="10" departLane="best"/>
   <vehicle id="E2W_176" type="ego_car" route="E2W" depart="1075" departSpeed="10" departLane="best"/>
   <vehicle id="W2E_177" type="ego_car" route="W2E" depart="1076" departSpeed="10" departLane="best"/>
   <vehicle id="E2W_178" type="ego_car" route="E2W" depart="1076" departSpeed="10" departLane="best"/>
   <vehicle id="E2W_179" type="ego_car" route="E2W" depart="1077" departSpeed="10" departLane="best"/>
   <vehicle id="W2E_180" type="ego_car" route="W2E" depart="1087" departSpeed="10" departLane="best"/>
   <vehicle id="E2W_181" type="ego_car" route="E2W" depart="1089" departSpeed="10" departLane="best"/>
   <vehicle id="E2W_182" type="ego_car" route="E2W" depart="1090" departSpeed="10" departLane="best"/>
   <vehicle id="W2E_183" type="ego_car" route="W2E" depart="1091" departSpeed="10" departLane="best"/>
   <vehicle id="E2W_184" type="ego_car" route="E2W" depart="1094" departSpeed="10" departLane="best"/>
   <vehicle id="E2W_185" type="ego_car" route="E2W" depart="1097" departSpeed="10" departLane="best"/>
   <vehicle id="E2W_186" type="ego_car" route="E2W" depart="1104" departSpeed="10" departLane="best"/>
   <vehicle id="E2W_187" type="ego_car" route="E2W" depart="1104" departSpeed="10" departLane="best"/>
   <vehicle id="E2W_188" type="ego_car" route="E2W" depart="1106" departSpeed="10" departLane="best"/>
   <vehicle id="E2W_189" type="ego_car" route="E2W" depart="1110" departSpeed="10" departLane="best"/>
   <vehicle id="W2E_190" type="ego_car" route="W2E" depart="1113" departSpeed="10" departLane="best"/>
   <vehicle id="E2W_191" type="ego_car" route="E2W" depart="1114" departSpeed="10" departLane="best"/>
   <vehicle id="W2E_192" type="ego_car" route="W2E" depart="1120" departSpeed="10" departLane="best"/>
   <vehicle id="W2E_193" type="ego_car" route="W2E" depart="1126" departSpeed="10" departLane="best"/>
   <vehicle id="W2E_194" type="ego_car" route="W2E" depart="1132" departSpeed="10" departLane="best"/>
   <vehicle id="W2E_195" type="ego_car" route="W2E" depart="1134" departSpeed="10" departLane="best"/>
   <vehicle id="W2E_196" type="ego_car" route="W2E" depart="1140" departSpeed="10" departLane="best"/>
   <vehicle id="W2E_197" type="ego_car" route="W2E" depart="1142" departSpeed="10" departLane="best"/>
   <vehicle id="W2E_198" type="ego_car" route="W2E" depart="1145" departSpeed="10" departLane="best"/>
   <vehicle id="W2E_199" type="ego_car" route="W2E" depart="1146" departSpeed="10" departLane="best"/>
   <vehicle id="E2W_200" type="ego_car" route="E2W" depart="1147" departSpeed="10" departLane="best"/>
   <vehicle id="W2E_201" type="ego_car" route="W2E" depart="1148" departSpeed="10" departLane="best"/>
   <vehicle id="E2W_202" type="ego_car" route="E2W" depart="1157" departSpeed="10" departLane="best"/>
   <vehicle id="E2W_203" type="ego_car" route="E2W" depart="1165" departSpeed="10" departLane="best"/>
   <vehicle id="E2W_204" type="ego_car" route="E2W" depart="1183" departSpeed="10" departLane="best"/>
   <vehicle id="E2W_205" type="ego_car" route="E2W" depart="1202" departSpeed="10" departLane="best"/>
   <vehicle id="W2E_206" type="ego_car" route="W2E" depart="1204" departSpeed="10" departLane="best"/>
   <vehicle id="E2W_207" type="ego_car" route="E2W" depart="1205" departSpeed="10" departLane="best"/>
   <vehicle id="W2E_208" type="ego_car" route="W2E" depart="1221" departSpeed="10" departLane="best"/>
   <vehicle id="E2W_209" type="ego_car" route="E2W" depart="1226" departSpeed="10" departLane="best"/>
   <vehicle id="W2E_210" type="ego_car" route="W2E" depart="1233" departSpeed="10" departLane="best"/>
   <vehicle id="W2E_211" type="ego_car" route="W2E" depart="1249" departSpeed="10" departLane="best"/>
   <vehicle id="W2E_212" type="ego_car" route="W2E" depart="1250" departSpeed="10" departLane="best"/>
   <vehicle id="W2E_213" type="ego_car" route="W2E" depart="1254" departSpeed="10" departLane="best"/>
   <vehicle id="E2W_214" type="ego_car" route="E2W" depart="1262" departSpeed="10" departLane="best"/>
   <vehicle id="W2E_215" type="ego_car" route="W2E" depart="1264" departSpeed="10" departLane="best"/>
   <vehicle id="W2E_216" type="ego_car" route="W2E" depart="1264" departSpeed="10" departLane="best"/>
   <vehicle id="E2W_217" type="ego_car" route="E2W" depart="1266" departSpeed="10" departLane="best"/>
   <vehicle id="W2E_218" type="ego_car" route="W2E" depart="1267" departSpeed="10" departLane="best"/>
   <vehicle id="E2W_219" type="ego_car" route="E2W" depart="1267" departSpeed="10" departLane="best"/>
   <vehicle id="E2W_220" type="ego_car" route="E2W" depart="1295" departSpeed="10" departLane="best"/>
   <vehicle id="W2E_221" type="ego_car" route="W2E" depart="1298" departSpeed="10" departLane="best"/>
   <vehicle id="W2E_222" type="ego_car" route="W2E" depart="1300" departSpeed="10" departLane="best"/>
   <vehicle id="W2E_223" type="ego_car" route="W2E" depart="1304" departSpeed="10" departLane="best"/>
   <vehicle id="W2E_224" type="ego_car" route="W2E" depart="1313" departSpeed="10" departLane="best"/>
   <vehicle id="W2E_225" type="ego_car" route="W2E" depart="1313" departSpeed="10" departLane="best"/>
   <vehicle id="W2E_226" type="ego_car" route="W2E" depart="1317" departSpeed="10" departLane="best"/>
   <vehicle id="W2E_227" type="ego_car" route="W2E" depart="1323" departSpeed="10" departLane="best"/>
   <vehicle id="W2E_228" type="ego_car" route="W2E" depart="1327" departSpeed="10" departLane="best"/>
   <vehicle id="W2E_229" type="ego_car" route="W2E" depart="1333" departSpeed="10" departLane="best"/>
   <vehicle id="E2W_230" type="ego_car" route="E2W" depart="1336" departSpeed="10" departLane="best"/>
   <vehicle id="W2E_231" type="ego_car" route="W2E" depart="1337" departSpeed="10" departLane="best"/>
   <vehicle id="W2E_232" type="ego_car" route="W2E" depart="1338" departSpeed="10" departLane="best"/>
   <vehicle id="E2W_233" type="ego_car" route="E2W" depart="1346" departSpeed="10" departLane="best"/>
   <vehicle id="W2E_234" type="ego_car" route="W2E" depart="1352" departSpeed="10" departLane="best"/>
   <vehicle id="W2E_235" type="ego_car" route="W2E" depart="1353" departSpeed="10" departLane="best"/>
   <vehicle id="E2W_236" type="ego_car" route="E2W" depart="1361" departSpeed="10" departLane="best"/>
   <vehicle id="W2E_237" type="ego_car" route="W2E" depart="1363" departSpeed="10" departLane="best"/>
   <vehicle id="E2W_238" type="ego_car" route="E2W" depart="1365" departSpeed="10" departLane="best"/>
   <vehicle id="W2E_239" type="ego_car" route="W2E" depart="1386" departSpeed="10" departLane="best"/>
   <vehicle id="W2E_240" type="ego_car" route="W2E" depart="1390" departSpeed="10" departLane="best"/>
   <vehicle id="E2W_241" type="ego_car" route="E2W" depart="1407" departSpeed="10" departLane="best"/>
   <vehicle id="W2E_242" type="ego_car" route="W2E" depart="1410" departSpeed="10" departLane="best"/>
   <vehicle id="E2W_243" type="ego_car" route="E2W" depart="1414" departSpeed="10" departLane="best"/>
   <vehicle id="E2W_244" type="ego_car" route="E2W" depart="1421" departSpeed="10" departLane="best"/>
   <vehicle id="E2W_245" type="ego_car" route="E2W" depart="1444" departSpeed="10" departLane="best"/>
   <vehicle id="E2W_246" type="ego_car" route="E2W" depart="1450" departSpeed="10" departLane="best"/>
   <vehicle id="E2W_247" type="ego_car" route="E2W" depart="1458" departSpeed="10" departLane="best"/>
   <vehicle id="E2W_248" type="ego_car" route="E2W" depart="1460" departSpeed="10" departLane="best"/>
   <vehicle id="W2E_249" type="ego_car" route="W2E" depart="1474" departSpeed="10" departLane="best"/>
   <vehicle id="W2E_250" type="ego_car" route="W2E" depart="1477" departSpeed="10" departLane="best"/>
   <vehicle id="W2E_251" type="ego_car" route="W2E" depart="1503" departSpeed="10" departLane="best"/>
   <vehicle id="E2W_252" type="ego_car" route="E2W" depart="1515" departSpeed="10" departLane="best"/>
   <vehicle id="W2E_253" type="ego_car" route="W2E" depart="1518" departSpeed="10" departLane="best"/>
   <vehicle id="E2W_254" type="ego_car" route="E2W" depart="1522" departSpeed="10" departLane="best"/>
   <vehicle id="E2W_255" type="ego_car" route="E2W" depart="1529" departSpeed="10" departLane="best"/>
   <vehicle id="E2W_256" type="ego_car" route="E2W" depart="1534" departSpeed="10" departLane="best"/>
   <vehicle id="W2E_257" type="ego_car" route="W2E" depart="1544" departSpeed="10" departLane="best"/>
   <vehicle id="W2E_258" type="ego_car" route="W2E" depart="1553" departSpeed="10" departLane="best"/>
   <vehicle id="W2E_259" type="ego_car" route="W2E" depart="1558" departSpeed="10" departLane="best"/>
   <vehicle id="W2E_260" type="ego_car" route="W2E" depart="1561" departSpeed="10" departLane="best"/>
   <vehicle id="W2E_261" type="ego_car" route="W2E" depart="1561" departSpeed="10" departLane="best"/>
   <vehicle id="W2E_262" type="ego_car" route="W2E" depart="1566" departSpeed="10" departLane="best"/>
   <vehicle id="W2E_263" type="ego_car" route="W2E" depart="1603" departSpeed="10" departLane="best"/>
   <vehicle id="E2W_264" type="ego_car" route="E2W" depart="1611" departSpeed="10" departLane="best"/>
   <vehicle id="W2E_265" type="ego_car" route="W2E" depart="1613" departSpeed="10" departLane="best"/>
   <vehicle id="E2W_266" type="ego_car" route="E2W" depart="1649" departSpeed="10" departLane="best"/>
   <vehicle id="E2W_267" type="ego_car" route="E2W" depart="1653" departSpeed="10" departLane="best"/>
   <vehicle id="W2E_268" type="ego_car" route="W2E" depart="1663" departSpeed="10" departLane="best"/>
   <vehicle id="E2W_269" type="ego_car" route="E2W" depart="1664" departSpeed="10" departLane="best"/>
   <vehicle id="W2E_270" type="ego_car" route="W2E" depart="1670" departSpeed="10" departLane="best"/>
   <vehicle id="E2W_271" type="ego_car" route="E2W" depart="1676" departSpeed="10" departLane="best"/>
   <vehicle id="E2W_272" type="ego_car" route="E2W" depart="1678" departSpeed="10" departLane="best"/>
   <vehicle id="W2E_273" type="ego_car" route="W2E" depart="1689" departSpeed="10" departLane="best"/>
   <vehicle id="E2W_274" type="ego_car" route="E2W" depart="1705" departSpeed="10" departLane="best"/>
   <vehicle id="E2W_275" type="ego_car" route="E2W" depart="1708" departSpeed="10" departLane="best"/>
   <vehicle id="E2W_276" type="ego_car" route="E2W" depart="1715" departSpeed="10" departLane="best"/>
   <vehicle id="W2E_277" type="ego_car" route="W2E" depart="1741" departSpeed="10" departLane="best"/>
   <vehicle id="E2W_278" type="ego_car" route="E2W" depart="1778" departSpeed="10" departLane="best"/>
   <vehicle id="E2W_279" type="ego_car" route="E2W" depart="1793" departSpeed="10" departLane="best"/>
   <vehicle id="W2E_280" type="ego_car" route="W2E" depart="1797" departSpeed="10" departLane="best"/>
   <vehicle id="E2W_281" type="ego_car" route="E2W" depart="1813" departSpeed="10" departLane="best"/>
   <vehicle id="W2E_282" type="ego_car" route="W2E" depart="1818" departSpeed="10" departLane="best"/>
   <vehicle id="E2W_283" type="ego_car" route="E2W" depart="1831" departSpeed="10" departLane="best"/>