<routes>

        <vType id = 'ego_car' vclass="evehicle" emissionClass="Energy/unknown" tau="1" accel="3.0" decel="3.0" color="#00FFFF" sigma="0.2" length="4.90" minGap="1" maxSpeed="20" guiShape="passenger">
            <param key="has.battery.device" value="true"/>
            <param key="maximumBatteryCapacity" value="38000"/> 
            <param key="maximumPower" value="200000"/>
            <param key="vehicleMass" value="1830"/>
            <param key="frontSurfaceArea" value="2.6"/>
            <param key="airDragCoefficient" value="0.35"/>
            <param key="internalMomentOfInertia" value="0.01"/>
            <param key="radialDragCoefficient" value="0.1"/>
            <param key="rollDragCoefficient" value="0.01"/>
            <param key="constantPowerIntake" value="100"/>
            <param key="propulsionEfficiency" value="0.9"/>
            <param key="recuperationEfficiency" value="0.9"/>
            <param key="stoppingThreshold" value="0.1"/>
        </vType>
        
        <route id="W2E" edges="WE0 WE1"/>
        <route id="E2W" edges="EW0 EW1"/>
   <vehicle id="W2E_1" type="ego_car" route="W2E" depart="70" departSpeed="10" departLane="best"/>
   <vehicle id="E2W_2" type="ego_car" route="E2W" depart="81" departSpeed="10" departLane="best"/>
   <vehicle id="E2W_3" type="ego_car" route="E2W" depart="84" departSpeed="10" departLane="best"/>
   <vehicle id="W2E_4" type="ego_car" route="W2E" depart="85" departSpeed="10" departLane="best"/>
   <vehicle id="E2W_5" type="ego_car" route="E2W" depart="91" departSpeed="10" departLane="best"/>
   <vehicle id="W2E_6" type="ego_car" route="W2E" depart="117" departSpeed="10" departLane="best"/>
   <vehicle id="W2E_7" type="ego_car" route="W2E" depart="119" departSpeed="10" departLane="best"/>
   <vehicle id="W2E_8" type="ego_car" route="W2E" depart="132" departSpeed="10" departLane="best"/>
   <vehicle id="W2E_9" type="ego_car" route="W2E" depart="143" departSpeed="10" departLane="best"/>
   <vehicle id="W2E_10" type="ego_car" route="W2E" depart="204" departSpeed="10" departLane="best"/>
   <vehicle id="E2W_11" type="ego_car" route="E2W" depart="231" departSpeed="10" departLane="best"/>
   <vehicle id="E2W_12" type="ego_car" route="E2W" depart="243" departSpeed="10" departLane="best"/>
   <vehicle id="W2E_13" type="ego_car" route="W2E" depart="246" departSpeed="10" departLane="best"/>
   <vehicle id="W2E_14" type="ego_car" route="W2E" depart="249" departSpeed="10" departLane="best"/>
   <vehicle id="W2E_15" type="ego_car" route="W2E" depart="267" departSpeed="10" departLane="best"/>
   <vehicle id="W2E_16" type="ego_car" route="W2E" depart="279" departSpeed="10" departLane="best"/>
   <vehicle id="W2E_17" type="ego_car" route="W2E" depart="299" departSpeed="10" departLane="best"/>
   <vehicle id="E2W_18" type="ego_car" route="E2W" depart="309" departSpeed="10" departLane="best"/>
   <vehicle id="E2W_19" type="ego_car" route="E2W" depart="311" departSpeed="10" departLane="best"/>
   <vehicle id="W2E_20" type="ego_car" route="W2E" depart="313" departSpeed="10" departLane="best"/>
   <vehicle id="W2E_21" type="ego_car" route="W2E" depart="315" departSpeed="10" departLane="best"/>
   <vehicle id="E2W_22" type="ego_car" route="E2W" depart="327" departSpeed="10" departLane="best"/>
   <vehicle id="W2E_23" type="ego_car" route="W2E" depart="332" departSpeed="10" departLane="best"/>
   <vehicle id="W2E_24" type="ego_car" route="W2E" depart="333" departSpeed="10" departLane="best"/>
   <vehicle id="W2E_25" type="ego_car" route="W2E" depart="333" departSpeed="10" departLane="best"/>
   <vehicle id="W2E_26" type="ego_car" route="W2E" depart="336" departSpeed="10" departLane="best"/>
   <vehicle id="E2W_27" type="ego_car" route="E2W" depart="337" departSpeed="10" departLane="best"/>
   <vehicle id="W2E_28" type="ego_car" route="W2E" depart="337" departSpeed="10" departLane="best"/>
   <vehicle id="E2W_29" type="ego_car" route="E2W" depart="339" departSpeed="10" departLane="best"/>
   <vehicle id="W2E_30" type="ego_car" route="W2E" depart="342" departSpeed="10" departLane="best"/>
   <vehicle id="W2E_31" type="ego_car" route="W2E" depart="352" departSpeed="10" departLane="best"/>
   <vehicle id="W2E_32" type="ego_car" route="W2E" depart="355" departSpeed="10" departLane="best"/>
   <vehicle id="E2W_33" type="ego_car" route="E2W" depart="358" departSpeed="10" departLane="best"/>
   <vehicle id="E2W_34" type="ego_car" route="E2W" depart="360" departSpeed="10" departLane="best"/>
   <vehicle id="E2W_35" type="ego_car" route="E2W" depart="362" departSpeed="10" departLane="best"/>
   <vehicle id="W2E_36" type="ego_car" route="W2E" depart="371" departSpeed="10" departLane="best"/>
   <vehicle id="W2E_37" type="ego_car" route="W2E" depart="384" departSpeed="10" departLane="best"/>
   <vehicle id="W2E_38" type="ego_car" route="W2E" depart="393" departSpeed="10" departLane="best"/>
   <vehicle id="W2E_39" type="ego_car" route="W2E" depart="398" departSpeed="10" departLane="best"/>
   <vehicle id="W2E_40" type="ego_car" route="W2E" depart="401" departSpeed="10" departLane="best"/>
   <vehicle id="W2E_41" type="ego_car" route="W2E" depart="408" departSpeed="10" departLane="best"/>
   <vehicle id="E2W_42" type="ego_car" route="E2W" depart="409" departSpeed="10" departLane="best"/>
   <vehicle id="W2E_43" type="ego_car" route="W2E" depart="412" departSpeed="10" departLane="best"/>
   <vehicle id="W2E_44" type="ego_car" route="W2E" depart="419" departSpeed="10" departLane="best"/>
   <vehicle id="W2E_45" type="ego_car" route="W2E" depart="426" departSpeed="10" departLane="best"/>
   <vehicle id="W2E_46" type="ego_car" route="W2E" depart="432" departSpeed="10" departLane="best"/>
   <vehicle id="W2E_47" type="ego_car" route="W2E" depart="433" departSpeed="10" departLane="best"/>
   <vehicle id="E2W_48" type="ego_car" route="E2W" depart="438" departSpeed="10" departLane="best"/>
   <vehicle id="E2W_49" type="ego_car" route="E2W" depart="446" departSpeed="10" departLane="best"/>
   <vehicle id="E2W_50" type="ego_car" route="E2W" depart="450" departSpeed="10" departLane="best"/>
   <vehicle id="E2W_51" type="ego_car" route="E2W" depart="457" departSpeed="10" departLane="best"/>
   <vehicle id="W2E_52" type="ego_car" route="W2E" depart="462" departSpeed="10" departLane="best"/>
   <vehicle id="W2E_53" type="ego_car" route="W2E" depart="470" departSpeed="10" departLane="best"/>
   <vehicle id="W2E_54" type="ego_car" route="W2E" depart="470" departSpeed="10" departLane="best"/>
   <vehicle id="W2E_55" type="ego_car" route="W2E" depart="475" departSpeed="10" departLane="best"/>
   <vehicle id="E2W_56" type="ego_car" route="E2W" depart="476" departSpeed="10" departLane="best"/>
   <vehicle id="E2W_57" type="ego_car" route="E2W" depart="478" departSpeed="10" departLane="best"/>
   <vehicle id="W2E_58" type="ego_car" route="W2E" depart="479" departSpeed="10" departLane="best"/>
   <vehicle id="W2E_59" type="ego_car" route="W2E" depart="480" departSpeed="10" departLane="best"/>
   <vehicle id="E2W_60" type="ego_car" route="E2W" depart="484" departSpeed="10" departLane="best"/>
   <vehicle id="W2E_61" type="ego_car" route="W2E" depart="486" departSpeed="10" departLane="best"/>
   <vehicle id="W2E_62" type="ego_car" route="W2E" depart="489" departSpeed="10" departLane="best"/>
   <vehicle id="W2E_63" type="ego_car" route="W2E" depart="493" departSpeed="10" departLane="best"/>
   <vehicle id="W2E_64" type="ego_car" route="W2E" depart="508" departSpeed="10" departLane="best"/>
   <vehicle id="E2W_65" type="ego_car" route="E2W" depart="509" departSpeed="10" departLane="best"/>
   <vehicle id="E2W_66" type="ego_car" route="E2W" depart="510" departSpeed="10" departLane="best"/>
   <vehicle id="E2W_67" type="ego_car" route="E2W" depart="514" departSpeed="10" departLane="best"/>
   <vehicle id="W2E_68" type="ego_car" route="W2E" depart="531" departSpeed="10" departLane="best"/>
   <vehicle id="E2W_69" type="ego_car" route="E2W" depart="535" departSpeed="10" departLane="best"/>
   <vehicle id="W2E_70" type="ego_car" route="W2E" depart="542" departSpeed="10" departLane="best"/>
   <vehicle id="W2E_71" type="ego_car" route="W2E" depart="547" departSpeed="10" departLane="best"/>
   <vehicle id="W2E_72" type="ego_car" route="W2E" depart="548" departSpeed="10" departLane="best"/>
   <vehicle id="E2W_73" type="ego_car" route="E2W" depart="554" departSpeed="10" departLane="best"/>
   <vehicle id="W2E_74" type="ego_car" route="W2E" depart="556" departSpeed="10" departLane="best"/>
   <vehicle id="W2E_75" type="ego_car" route="W2E" depart="562" departSpeed="10" departLane="best"/>
   <vehicle id="W2E_76" type="ego_car" route="W2E" depart="564" departSpeed="10" departLane="best"/>
   <vehicle id="W2E_77" type="ego_car" route="W2E" depart="566" departSpeed="10" departLane="best"/>
   <vehicle id="E2W_78" type="ego_car" route="E2W" depart="586" departSpeed="10" departLane="best"/>
   <vehicle id="W2E_79" type="ego_car" route="W2E" depart="590" departSpeed="10" departLane="best"/>
   <vehicle id="E2W_80" type="ego_car" route="E2W" depart="592" departSpeed="10" departLane="best"/>
   <vehicle id="W2E_81" type="ego_car" route="W2E" depart="598" departSpeed="10" departLane="best"/>
   <vehicle id="W2E_82" type="ego_car" route="W2E" depart="600" departSpeed="10" departLane="best"/>
   <vehicle id="W2E_83" type="ego_car" route="W2E" depart="624" departSpeed="10" departLane="best"/>
   <vehicle id="E2W_84" type="ego_car" route="E2W" depart="625" departSpeed="10" departLane="best"/>
   <vehicle id="W2E_85" type="ego_car" route="W2E" depart="627" departSpeed="10" departLane="best"/>
   <vehicle id="W2E_86" type="ego_car" route="W2E" depart="629" departSpeed="10" departLane="best"/>
   <vehicle id="W2E_87" type="ego_car" route="W2E" depart="630" departSpeed="10" departLane="best"/>
   <vehicle id="E2W_88" type="ego_car" route="E2W" depart="635" departSpeed="10" departLane="best"/>
   <vehicle id="W2E_89" type="ego_car" route="W2E" depart="666" departSpeed="10" departLane="best"/>
   <vehicle id="E2W_90" type="ego_car" route="E2W" depart="668" departSpeed="10" departLane="best"/>
   <vehicle id="E2W_91" type="ego_car" route="E2W" depart="675" departSpeed="10" departLane="best"/>
   <vehicle id="E2W_92" type="ego_car" route="E2W" depart="693" departSpeed="10" departLane="best"/>
   <vehicle id="W2E_93" type="ego_car" route="W2E" depart="693" departSpeed="10" departLane="best"/>
   <vehicle id="W2E_94" type="ego_car" route="W2E" depart="694" departSpeed="10" departLane="best"/>
   <vehicle id="W2E_95" type="ego_car" route="W2E" depart="699" departSpeed="10" departLane="best"/>
   <vehicle id="E2W_96" type="ego_car" route="E2W" depart="701" departSpeed="10" departLane="best"/>
   <vehicle id="E2W_97" type="ego_car" route="E2W" depart="703" departSpeed="10" departLane="best"/>
   <vehicle id="E2W_98" type="ego_car" route="E2W" depart="704" departSpeed="10" departLane="best"/>
   <vehicle id="E2W_99" type="ego_car" route="E2W" depart="708" departSpeed="10" departLane="best"/>
   <vehicle id="E2W_100" type="ego_car" route="E2W" depart="715" departSpeed="10" departLane="best"/>
   <vehicle id="W2E_101" type="ego_car" route="W2E" depart="748" departSpeed="10" departLane="best"/>
   <vehicle id="E2W_102" type="ego_car" route="E2W" depart="753" departSpeed="10" departLane="best"/>
   <vehicle id="W2E_103" type="ego_car" route="W2E" depart="755" departSpeed="10" departLane="best"/>
   <vehicle id="E2W_104" type="ego_car" route="E2W" depart="756" departSpeed="10" departLane="best"/>
   <vehicle id="W2E_105" type="ego_car" route="W2E" depart="763" departSpeed="10" departLane="best"/>
   <vehicle id="E2W_106" type="ego_car" route="E2W" depart="764" departSpeed="10" departLane="best"/>
   <vehicle id="E2W_107" type="ego_car" route="E2W" depart="767" departSpeed="10" departLane="best"/>
   <vehicle id="W2E_108" type="ego_car" route="W2E" depart="784" departSpeed="10" departLane="best"/>
   <vehicle id="E2W_109" type="ego_car" route="E2W" depart="788" departSpeed="10" departLane="best"/>
   <vehicle id="W2E_110" type="ego_car" route="W2E" depart="791" departSpeed="10" departLane="best"/>
   <vehicle id="W2E_111" type="ego_car" route="W2E" depart="813" departSpeed="10" departLane="best"/>
   <vehicle id="W2E_112" type="ego_car" route="W2E" depart="814" departSpeed="10" departLane="best"/>
   <vehicle id="E2W_113" type="ego_car" route="E2W" depart="816" departSpeed="10" departLane="best"/>
   <vehicle id="W2E_114" type="ego_car" route="W2E" depart="824" departSpeed="10" departLane="best"/>
   <vehicle id="W2E_115" type="ego_car" route="W2E" depart="826" departSpeed="10" departLane="best"/>
   <vehicle id="W2E_116" type="ego_car" route="W2E" depart="828" departSpeed="10" departLane="best"/>
   <vehicle id="E2W_117" type="ego_car" route="E2W" depart="841" departSpeed="10" departLane="best"/>
   <vehicle id="E2W_118" type="ego_car" route="E2W" depart="842" departSpeed="10" departLane="best"/>
   <vehicle id="W2E_119" type="ego_car" route="W2E" depart="843" departSpeed="10" departLane="best"/>
   <vehicle id="E2W_120" type="ego_car" route="E2W" depart="845" departSpeed="10" departLane="best"/>
   <vehicle id="W2E_121" type="ego_car" route="W2E" depart="847" departSpeed="10" departLane="best"/>
   <vehicle id="E2W_122" type="ego_car" route="E2W" depart="849" departSpeed="10" departLane="best"/>
   <vehicle id="W2E_123" type="ego_car" route="W2E" depart="852" departSpeed="10" departLane="best"/>
   <vehicle id="W2E_124" type="ego_car" route="W2E" depart="862" departSpeed="10" departLane="best"/>
   <vehicle id="W2E_125" type="ego_car" route="W2E" depart="862" departSpeed="10" departLane="best"/>
   <vehicle id="W2E_126" type="ego_car" route="W2E" depart="863" departSpeed="10" departLane="best"/>
   <vehicle id="W2E_127" type="ego_car" route="W2E" depart="864" departSpeed="10" departLane="best"/>
   <vehicle id="W2E_128" type="ego_car" route="W2E" depart="867" departSpeed="10" departLane="best"/>
   <vehicle id="E2W_129" type="ego_car" route="E2W" depart="869" departSpeed="10" departLane="best"/>
   <vehicle id="E2W_130" type="ego_car" route="E2W" depart="874" departSpeed="10" departLane="best"/>
   <vehicle id="E2W_131" type="ego_car" route="E2W" depart="881" departSpeed="10" departLane="best"/>
   <vehicle id="W2E_132" type="ego_car" route="W2E" depart="882" departSpeed="10" departLane="best"/>
   <vehicle id="W2E_133" type="ego_car" route="W2E" depart="886" departSpeed="10" departLane="best"/>
   <vehicle id="E2W_134" type="ego_car" route="E2W" depart="888" departSpeed="10" departLane="best"/>
   <vehicle id="W2E_135" type="ego_car" route="W2E" depart="895" departSpeed="10" departLane="best"/>
   <vehicle id="W2E_136" type="ego_car" route="W2E" depart="899" departSpeed="10" departLane="best"/>
   <vehicle id="W2E_137" type="ego_car" route="W2E" depart="905" departSpeed="10" departLane="best"/>
   <vehicle id="E2W_138" type="ego_car" route="E2W" depart="937" departSpeed="10" departLane="best"/>
   <vehicle id="W2E_139" type="ego_car" route="W2E" depart="948" departSpeed="10" departLane="best"/>
   <vehicle id="W2E_140" type="ego_car" route="W2E" depart="957" departSpeed="10" departLane="best"/>
   <vehicle id="E2W_141" type="ego_car" route="E2W" depart="958" departSpeed="10" departLane="best"/>
   <vehicle id="W2E_142" type="ego_car" route="W2E" depart="966" departSpeed="10" departLane="best"/>
   <vehicle id="W2E_143" type="ego_car" route="W2E" depart="968" departSpeed="10" departLane="best"/>
   <vehicle id="E2W_144" type="ego_car" route="E2W" depart="972" departSpeed="10" departLane="best"/>
   <vehicle id="W2E_145" type="ego_car" route="W2E" depart="982" departSpeed="10" departLane="best"/>
   <vehicle id="E2W_146" type="ego_car" route="E2W" depart="986" departSpeed="10" departLane="best"/>
   <vehicle id="W2E_147" type="ego_car" route="W2E" depart="990" departSpeed="10" departLane="best"/>
   <vehicle id="W2E_148" type="ego_car" route="W2E" depart="992" departSpeed="10" departLane="best"/>
   <vehicle id="W2E_149" type="ego_car" route="W2E" depart="995" departSpeed="10" departLane="best"/>
   <vehicle id="E2W_150" type="ego_car" route="E2W" depart="1016" departSpeed="10" departLane="best"/>
   <vehicle id="W2E_151" type="ego_car" route="W2E" depart="1019" departSpeed="10" departLane="best"/>
   <vehicle id="E2W_152" type="ego_car" route="E2W" depart="1021" departSpeed="10" departLane="best"/>
   <vehicle id="E2W_153" type="ego_car" route="E2W" depart="1030" departSpeed="10" departLane="best"/>
   <vehicle id="E2W_154" type="ego_car" route="E2W" depart="1035" departSpeed="10" departLane="best"/>
   <vehicle id="E2W_155" type="ego_car" route="E2W" depart="1036" departSpeed="10" departLane="best"/>
   <vehicle id="W2E_156" type="ego_car" route="W2E" depart="1045" departSpeed="10" departLane="best"/>
   <vehicle id="W2E_157" type="ego_car" route="W2E" depart="1050" departSpeed="10" departLane="best"/>
   <vehicle id="W2E_158" type="ego_car" route="W2E" depart="1066" departSpeed="10" departLane="best"/>
   <vehicle id="E2W_159" type="ego_car" route="E2W" depart="1071" departSpeed="10" departLane="best"/>
   <vehicle id="W2E_160" type="ego_car" route="W2E" depart="1082" departSpeed="10" departLane="best"/>
   <vehicle id="W2E_161" type="ego_car" route="W2E" depart="1088" departSpeed="10" departLane="best"/>
   <vehicle id="W2E_162" type="ego_car" route="W2E" depart="1090" departSpeed="10" departLane="best"/>
   <vehicle id="W2E_163" type="ego_car" route="W2E" depart="1091" departSpeed="10" departLane="best"/>
   <vehicle id="E2W_164" type="ego_car" route="E2W" depart="1132" departSpeed="10" departLane="best"/>
   <vehicle id="W2E_165" type="ego_car" route="W2E" depart="1133" departSpeed="10" departLane="best"/>
   <vehicle id="W2E_166" type="ego_car" route="W2E" depart="1148" departSpeed="10" departLane="best"/>
   <vehicle id="W2E_167" type="ego_car" route="W2E" depart="1150" departSpeed="10" departLane="best"/>
   <vehicle id="E2W_168" type="ego_car" route="E2W" depart="1157" departSpeed="10" departLane="best"/>
   <vehicle id="E2W_169" type="ego_car" route="E2W" depart="1168" departSpeed="10" departLane="best"/>
   <vehicle id="E2W_170" type="ego_car" route="E2W" depart="1172" departSpeed="10" departLane="best"/>
   <vehicle id="E2W_171" type="ego_car" route="E2W" depart="1173" departSpeed="10" departLane="best"/>
   <vehicle id="E2W_172" type="ego_car" route="E2W" depart="1184" departSpeed="10" departLane="best"/>
   <vehicle id="E2W_173" type="ego_car" route="E2W" depart="1195" departSpeed="10" departLane="best"/>
   <vehicle id="E2W_174" type="ego_car" route="E2W" depart="1196" departSpeed="10" departLane="best"/>
   <vehicle id="E2W_175" type="ego_car" route="E2W" depart="1199" departSpeed="10" departLane="best"/>
   <vehicle id="E2W_176" type="ego_car" route="E2W" depart="1201" departSpeed="10" departLane="best"/>
   <vehicle id="E2W_177" type="ego_car" route="E2W" depart="1220" departSpeed="10" departLane="best"/>
   <vehicle id="E2W_178" type="ego_car" route="E2W" depart="1226" departSpeed="10" departLane="best"/>
   <vehicle id="E2W_179" type="ego_car" route="E2W" depart="1233" departSpeed="10" departLane="best"/>
   <vehicle id="E2W_180" type="ego_car" route="E2W" depart="1234" departSpeed="10" departLane="best"/>
   <vehicle id="E2W_181" type="ego_car" route="E2W" depart="1270" departSpeed="10" departLane="best"/>
   <vehicle id="E2W_182" type="ego_car" route="E2W" depart="1281" departSpeed="10" departLane="best"/>
   <vehicle id="W2E_183" type="ego_car" route="W2E" depart="1300" departSpeed="10" departLane="best"/>
   <vehicle id="E2W_184" type="ego_car" route="E2W" depart="1319" departSpeed="10" departLane="best"/>
   <vehicle id="W2E_185" type="ego_car" route="W2E" depart="1321" departSpeed="10" departLane="best"/>
   <vehicle id="E2W_186" type="ego_car" route="E2W" depart="1332" departSpeed="10" departLane="best"/>
   <vehicle id="W2E_187" type="ego_car" route="W2E" depart="1333" departSpeed="10" departLane="best"/>
   <vehicle id="E2W_188" type="ego_car" route="E2W" depart="1334" departSpeed="10" departLane="best"/>
   <vehicle id="W2E_189" type="ego_car" route="W2E" depart="1334" departSpeed="10" departLane="best"/>
   <vehicle id="E2W_190" type="ego_car" route="E2W" depart="1339" departSpeed="10" departLane="best"/>
   <vehicle id="E2W_191" type="ego_car" route="E2W" depart="1352" departSpeed="10" departLane="best"/>
   <vehicle id="W2E_192" type="ego_car" route="W2E" depart="1352" departSpeed="10" departLane="best"/>
   <vehicle id="E2W_193" type="ego_car" route="E2W" depart="1354" departSpeed="10" departLane="best"/>
   <vehicle id="E2W_194" type="ego_car" route="E2W" depart="1355" departSpeed="10" departLane="best"/>
   <vehicle id="E2W_195" type="ego_car" route="E2W" depart="1355" departSpeed="10" departLane="best"/>
   <vehicle id="W2E_196" type="ego_car" route="W2E" depart="1355" departSpeed="10" departLane="best"/>
   <vehicle id="W2E_197" type="ego_car" route="W2E" depart="1367" departSpeed="10" departLane="best"/>
   <vehicle id="E2W_198" type="ego_car" route="E2W" depart="1369" departSpeed="10" departLane="best"/>
   <vehicle id="E2W_199" type="ego_car" route="E2W" depart="1377" departSpeed="10" departLane="best"/>
   <vehicle id="E2W_200" type="ego_car" route="E2W" depart="1409" departSpeed="10" departLane="best"/>
   <vehicle id="W2E_201" type="ego_car" route="W2E" depart="1413" departSpeed="10" departLane="best"/>
   <vehicle id="E2W_202" type="ego_car" route="E2W" depart="1423" departSpeed="10" departLane="best"/>
   <vehicle id="E2W_203" type="ego_car" route="E2W" depart="1427" departSpeed="10" departLane="best"/>
   <vehicle id="W2E_204" type="ego_car" route="W2E" depart="1440" departSpeed="10" departLane="best"/>
   <vehicle id="W2E_205" type="ego_car" route="W2E" depart="1451" departSpeed="10" departLane="best"/>
   <vehicle id="W2E_206" type="ego_car" route="W2E" depart="1454" departSpeed="10" departLane="best"/>
   <vehicle id="E2W_207" type="ego_car" route="E2W" depart="1460" departSpeed="10" departLane="best"/>
   <vehicle id="W2E_208" type="ego_car" route="W2E" depart="1513" departSpeed="10" departLane="best"/>
   <vehicle id="E2W_209" type="ego_car" route="E2W" depart="1514" departSpeed="10" departLane="best"/>
   <vehicle id="E2W_210" type="ego_car" route="E2W" depart="1548" departSpeed="10" departLane="best"/>
   <vehicle id="E2W_211" type="ego_car" route="E2W" depart="1555" departSpeed="10" departLane="best"/>
   <vehicle id="E2W_212" type="ego_car" route="E2W" depart="1565" departSpeed="10" departLane="best"/>
   <vehicle id="E2W_213" type="ego_car" route="E2W" depart="1623" departSpeed="10" departLane="best"/>
   <vehicle id="E2W_214" type="ego_car" route="E2W" depart="1631" departSpeed="10" departLane="best"/>
   <vehicle id="E2W_215" type="ego_car" route="E2W" depart="1659" departSpeed="10" departLane="best"/>
   <vehicle id="W2E_216" type="ego_car" route="W2E" depart="1667" departSpeed="10" departLane="best"/>
   <vehicle id="W2E_217" type="ego_car" route="W2E" depart="1675" departSpeed="10" departLane="best"/>
   <vehicle id="E2W_218" type="ego_car" route="E2W" depart="1686" departSpeed="10" departLane="best"/>
   <vehicle id="W2E_219" type="ego_car" route="W2E" depart="1758" departSpeed="10" departLane="best"/>
   <vehicle id="E2W_220" type="ego_car" route="E2W" depart="1759" departSpeed="10" departLane="best"/>
   <vehicle id="E2W_221" type="ego_car" route="E2W" depart="1784" departSpeed="10" departLane="best"/>
   <vehicle id="E2W_222" type="ego_car" route="E2W" depart="1787" departSpeed="10" departLane="best"/>
   <vehicle id="E2W_223" type="ego_car" route="E2W" depart="1809" departSpeed="10" departLane="best"/>
   <vehicle id="E2W_224" type="ego_car" route="E2W" depart="1816" departSpeed="10" departLane="best"/>
   <vehicle id="E2W_225" type="ego_car" route="E2W" depart="1906" departSpeed="10" departLane="best"/>
   <vehicle id="E2W_226" type="ego_car" route="E2W" depart="1938" departSpeed="10" departLane="best"/>
   <vehicle id="E2W_227" type="ego_car" route="E2W" depart="1971" departSpeed="10" departLane="best"/>
   <vehicle id="E2W_228" type="ego_car" route="E2W" depart="2015" departSpeed="10" departLane="best"/>
   <vehicle id="E2W_229" type="ego_car" route="E2W" depart="2028" departSpeed="10" departLane="best"/>
   <vehicle id="E2W_230" type="ego_car" route="E2W" depart="2041" departSpeed="10" departLane="best"/>
   <vehicle id="E2W_231" type="ego_car" route="E2W" depart="2082" departSpeed="10" departLane="best"/>
   <vehicle id="E2W_232" type="ego_car" route="E2W" depart="2171" departSpeed="10" departLane="best"/>
   <vehicle id="E2W_233" type="ego_car" route="E2W" depart="2302" departSpeed="10" departLane="best"/>
   <vehicle id="E2W_234" type="ego_car" route="E2W" depart="2331" departSpeed="10" departLane="best"/>
   <vehicle id="E2W_235" type="ego_car" route="E2W" depart="2363" departSpeed="10" departLane="best"/>
   <vehicle id="E2W_236" type="ego_car" route="E2W" depart="2429" departSpeed="10" departLane="best"/>
   <vehicle id="E2W_237" type="ego_car" route="E2W" depart="2548" departSpeed="10" departLane="best"/>
   <vehicle id="E2W_238" type="ego_car" route="E2W" depart="2596" departSpeed="10" departLane="best"/>
   <vehicle id="E2W_239" type="ego_car" route="E2W" depart="2670" departSpeed="10" departLane="best"/>
   <vehicle id="W2E_240" type="ego_car" route="W2E" depart="2885" departSpeed="10" departLane="best"/>
</routes>
