<routes>

        <vType id = 'ego_car' vclass="evehicle" emissionClass="Energy" tau="1.5" accel="3.0" decel="3.0" color="#00FFFF" sigma="0.2" length="4.90" minGap="1.0" maxSpeed="20" carFollowing="IDM" guiShape="passenger"/>

        <route id="N2S" edges="NS -SN"/>
        <route id="S2N" edges="SN -NS"/>
        <route id="W2E" edges="WE -EW"/>
        <route id="E2W" edges="EW -WE"/>
   <vehicle id="S2N_1" type="ego_car" route="S2N" depart="143" departSpeed="10" departLane="best"/>
   <vehicle id="N2S_2" type="ego_car" route="N2S" depart="251" departSpeed="10" departLane="best"/>
   <vehicle id="W2E_3" type="ego_car" route="W2E" depart="260" departSpeed="10" departLane="best"/>
   <vehicle id="N2S_4" type="ego_car" route="N2S" depart="266" departSpeed="10" departLane="best"/>
   <vehicle id="E2W_5" type="ego_car" route="E2W" depart="268" departSpeed="10" departLane="best"/>
   <vehicle id="W2E_6" type="ego_car" route="W2E" depart="332" departSpeed="10" departLane="best"/>
   <vehicle id="N2S_7" type="ego_car" route="N2S" depart="372" departSpeed="10" departLane="best"/>
   <vehicle id="W2E_8" type="ego_car" route="W2E" depart="372" departSpeed="10" departLane="best"/>
   <vehicle id="S2N_9" type="ego_car" route="S2N" depart="413" departSpeed="10" departLane="best"/>
   <vehicle id="E2W_10" type="ego_car" route="E2W" depart="443" departSpeed="10" departLane="best"/>
   <vehicle id="W2E_11" type="ego_car" route="W2E" depart="467" departSpeed="10" departLane="best"/>
   <vehicle id="S2N_12" type="ego_car" route="S2N" depart="589" departSpeed="10" departLane="best"/>
   <vehicle id="S2N_13" type="ego_car" route="S2N" depart="624" departSpeed="10" departLane="best"/>
   <vehicle id="W2E_14" type="ego_car" route="W2E" depart="644" departSpeed="10" departLane="best"/>
   <vehicle id="N2S_15" type="ego_car" route="N2S" depart="688" departSpeed="10" departLane="best"/>
   <vehicle id="E2W_16" type="ego_car" route="E2W" depart="689" departSpeed="10" departLane="best"/>
   <vehicle id="S2N_17" type="ego_car" route="S2N" depart="705" departSpeed="10" departLane="best"/>
   <vehicle id="N2S_18" type="ego_car" route="N2S" depart="708" departSpeed="10" departLane="best"/>
   <vehicle id="N2S_19" type="ego_car" route="N2S" depart="717" departSpeed="10" departLane="best"/>
   <vehicle id="N2S_20" type="ego_car" route="N2S" depart="719" departSpeed="10" departLane="best"/>
   <vehicle id="N2S_21" type="ego_car" route="N2S" depart="733" departSpeed="10" departLane="best"/>
   <vehicle id="W2E_22" type="ego_car" route="W2E" depart="737" departSpeed="10" departLane="best"/>
   <vehicle id="N2S_23" type="ego_car" route="N2S" depart="805" departSpeed="10" departLane="best"/>
   <vehicle id="N2S_24" type="ego_car" route="N2S" depart="826" departSpeed="10" departLane="best"/>
   <vehicle id="E2W_25" type="ego_car" route="E2W" depart="849" departSpeed="10" departLane="best"/>
   <vehicle id="S2N_26" type="ego_car" route="S2N" depart="871" departSpeed="10" departLane="best"/>
   <vehicle id="S2N_27" type="ego_car" route="S2N" depart="880" departSpeed="10" departLane="best"/>
   <vehicle id="E2W_28" type="ego_car" route="E2W" depart="887" departSpeed="10" departLane="best"/>
   <vehicle id="N2S_29" type="ego_car" route="N2S" depart="901" departSpeed="10" departLane="best"/>
   <vehicle id="E2W_30" type="ego_car" route="E2W" depart="961" departSpeed="10" departLane="best"/>
   <vehicle id="E2W_31" type="ego_car" route="E2W" depart="965" departSpeed="10" departLane="best"/>
   <vehicle id="S2N_32" type="ego_car" route="S2N" depart="977" departSpeed="10" departLane="best"/>
   <vehicle id="W2E_33" type="ego_car" route="W2E" depart="986" departSpeed="10" departLane="best"/>
   <vehicle id="N2S_34" type="ego_car" route="N2S" depart="1006" departSpeed="10" departLane="best"/>
   <vehicle id="N2S_35" type="ego_car" route="N2S" depart="1028" departSpeed="10" departLane="best"/>
   <vehicle id="N2S_36" type="ego_car" route="N2S" depart="1074" departSpeed="10" departLane="best"/>
   <vehicle id="N2S_37" type="ego_car" route="N2S" depart="1100" departSpeed="10" departLane="best"/>
   <vehicle id="S2N_38" type="ego_car" route="S2N" depart="1117" departSpeed="10" departLane="best"/>
   <vehicle id="S2N_39" type="ego_car" route="S2N" depart="1163" departSpeed="10" departLane="best"/>
   <vehicle id="W2E_40" type="ego_car" route="W2E" depart="1187" departSpeed="10" departLane="best"/>
   <vehicle id="E2W_41" type="ego_car" route="E2W" depart="1225" departSpeed="10" departLane="best"/>
   <vehicle id="E2W_42" type="ego_car" route="E2W" depart="1248" departSpeed="10" departLane="best"/>
   <vehicle id="S2N_43" type="ego_car" route="S2N" depart="1249" departSpeed="10" departLane="best"/>
   <vehicle id="E2W_44" type="ego_car" route="E2W" depart="1283" departSpeed="10" departLane="best"/>
   <vehicle id="S2N_45" type="ego_car" route="S2N" depart="1298" departSpeed="10" departLane="best"/>
   <vehicle id="E2W_46" type="ego_car" route="E2W" depart="1322" departSpeed="10" departLane="best"/>
   <vehicle id="W2E_47" type="ego_car" route="W2E" depart="1325" departSpeed="10" departLane="best"/>
   <vehicle id="N2S_48" type="ego_car" route="N2S" depart="1357" departSpeed="10" departLane="best"/>
   <vehicle id="S2N_49" type="ego_car" route="S2N" depart="1358" departSpeed="10" departLane="best"/>
   <vehicle id="N2S_50" type="ego_car" route="N2S" depart="1388" departSpeed="10" departLane="best"/>
   <vehicle id="N2S_51" type="ego_car" route="N2S" depart="1420" departSpeed="10" departLane="best"/>
   <vehicle id="E2W_52" type="ego_car" route="E2W" depart="1421" departSpeed="10" departLane="best"/>
   <vehicle id="E2W_53" type="ego_car" route="E2W" depart="1440" departSpeed="10" departLane="best"/>
   <vehicle id="E2W_54" type="ego_car" route="E2W" depart="1457" departSpeed="10" departLane="best"/>
   <vehicle id="E2W_55" type="ego_car" route="E2W" depart="1461" departSpeed="10" departLane="best"/>
   <vehicle id="S2N_56" type="ego_car" route="S2N" depart="1506" departSpeed="10" departLane="best"/>
   <vehicle id="N2S_57" type="ego_car" route="N2S" depart="1513" departSpeed="10" departLane="best"/>
   <vehicle id="S2N_58" type="ego_car" route="S2N" depart="1534" departSpeed="10" departLane="best"/>
   <vehicle id="N2S_59" type="ego_car" route="N2S" depart="1545" departSpeed="10" departLane="best"/>
   <vehicle id="W2E_60" type="ego_car" route="W2E" depart="1547" departSpeed="10" departLane="best"/>
   <vehicle id="S2N_61" type="ego_car" route="S2N" depart="1582" departSpeed="10" departLane="best"/>
   <vehicle id="N2S_62" type="ego_car" route="N2S" depart="1616" departSpeed="10" departLane="best"/>
   <vehicle id="S2N_63" type="ego_car" route="S2N" depart="1641" departSpeed="10" departLane="best"/>
   <vehicle id="W2E_64" type="ego_car" route="W2E" depart="1671" departSpeed="10" departLane="best"/>
   <vehicle id="N2S_65" type="ego_car" route="N2S" depart="1677" departSpeed="10" departLane="best"/>
   <vehicle id="W2E_66" type="ego_car" route="W2E" depart="1717" departSpeed="10" departLane="best"/>
   <vehicle id="W2E_67" type="ego_car" route="W2E" depart="1727" departSpeed="10" departLane="best"/>
   <vehicle id="W2E_68" type="ego_car" route="W2E" depart="1749" departSpeed="10" departLane="best"/>
   <vehicle id="S2N_69" type="ego_car" route="S2N" depart="1749" departSpeed="10" departLane="best"/>
   <vehicle id="W2E_70" type="ego_car" route="W2E" depart="1757" departSpeed="10" departLane="best"/>
   <vehicle id="W2E_71" type="ego_car" route="W2E" depart="1782" departSpeed="10" departLane="best"/>
   <vehicle id="S2N_72" type="ego_car" route="S2N" depart="1797" departSpeed="10" departLane="best"/>
   <vehicle id="N2S_73" type="ego_car" route="N2S" depart="1804" departSpeed="10" departLane="best"/>
   <vehicle id="E2W_74" type="ego_car" route="E2W" depart="1837" departSpeed="10" departLane="best"/>
   <vehicle id="W2E_75" type="ego_car" route="W2E" depart="1845" departSpeed="10" departLane="best"/>
   <vehicle id="W2E_76" type="ego_car" route="W2E" depart="1849" departSpeed="10" departLane="best"/>
   <vehicle id="W2E_77" type="ego_car" route="W2E" depart="1896" departSpeed="10" departLane="best"/>
   <vehicle id="W2E_78" type="ego_car" route="W2E" depart="1897" departSpeed="10" departLane="best"/>
   <vehicle id="S2N_79" type="ego_car" route="S2N" depart="1918" departSpeed="10" departLane="best"/>
   <vehicle id="S2N_80" type="ego_car" route="S2N" depart="1942" departSpeed="10" departLane="best"/>
   <vehicle id="W2E_81" type="ego_car" route="W2E" depart="2015" departSpeed="10" departLane="best"/>
   <vehicle id="N2S_82" type="ego_car" route="N2S" depart="2097" departSpeed="10" departLane="best"/>
   <vehicle id="E2W_83" type="ego_car" route="E2W" depart="2151" departSpeed="10" departLane="best"/>
   <vehicle id="W2E_84" type="ego_car" route="W2E" depart="2394" departSpeed="10" departLane="best"/>
   <vehicle id="E2W_85" type="ego_car" route="E2W" depart="2402" departSpeed="10" departLane="best"/>
   <vehicle id="S2N_86" type="ego_car" route="S2N" depart="2489" departSpeed="10" departLane="best"/>
   <vehicle id="E2W_87" type="ego_car" route="E2W" depart="2508" departSpeed="10" departLane="best"/>
   <vehicle id="W2E_88" type="ego_car" route="W2E" depart="2523" departSpeed="10" departLane="best"/>
   <vehicle id="E2W_89" type="ego_car" route="E2W" depart="2668" departSpeed="10" departLane="best"/>
   <vehicle id="W2E_90" type="ego_car" route="W2E" depart="2669" departSpeed="10" departLane="best"/>
   <vehicle id="E2W_91" type="ego_car" route="E2W" depart="2679" departSpeed="10" departLane="best"/>
   <vehicle id="E2W_92" type="ego_car" route="E2W" depart="2740" departSpeed="10" departLane="best"/>
   <vehicle id="S2N_93" type="ego_car" route="S2N" depart="2757" departSpeed="10" departLane="best"/>
   <vehicle id="W2E_94" type="ego_car" route="W2E" depart="2886" departSpeed="10" departLane="best"/>
   <vehicle id="S2N_95" type="ego_car" route="S2N" depart="3012" departSpeed="10" departLane="best"/>
   <vehicle id="E2W_96" type="ego_car" route="E2W" depart="3048" departSpeed="10" departLane="best"/>
   <vehicle id="E2W_97" type="ego_car" route="E2W" depart="3161" departSpeed="10" departLane="best"/>
   <vehicle id="E2W_98" type="ego_car" route="E2W" depart="3165" departSpeed="10" departLane="best"/>
   <vehicle id="S2N_99" type="ego_car" route="S2N" depart="3178" departSpeed="10" departLane="best"/>
   <vehicle id="N2S_100" type="ego_car" route="N2S" depart="3498" departSpeed="10" departLane="best"/>
</routes>
