<routes>

        <vType id = 'ego_car' vclass="evehicle" emissionClass="Energy/unknown" tau="1" accel="3.0" decel="3.0" color="#00FFFF" sigma="0.2" length="4.90" minGap="1" maxSpeed="20" guiShape="passenger">
            <param key="has.battery.device" value="true"/>
            <param key="maximumBatteryCapacity" value="38000"/> 
            <param key="maximumPower" value="200000"/>
            <param key="vehicleMass" value="1830"/>
            <param key="frontSurfaceArea" value="2.6"/>
            <param key="airDragCoefficient" value="0.35"/>
            <param key="internalMomentOfInertia" value="0.01"/>
            <param key="radialDragCoefficient" value="0.1"/>
            <param key="rollDragCoefficient" value="0.01"/>
            <param key="constantPowerIntake" value="100"/>
            <param key="propulsionEfficiency" value="0.9"/>
            <param key="recuperationEfficiency" value="0.9"/>
            <param key="stoppingThreshold" value="0.1"/>
        </vType>
        
        <route id="W2E" edges="WE0 WE1 WE2 WE3 WE4 WE5"/>
        <route id="E2W" edges="EW0 EW1 EW2 EW3 EW4 EW5"/>
   <vehicle id="W2E_1" type="ego_car" route="W2E" depart="147" departSpeed="10" departLane="best"/>
   <vehicle id="E2W_2" type="ego_car" route="E2W" depart="170" departSpeed="10" departLane="best"/>
   <vehicle id="W2E_3" type="ego_car" route="W2E" depart="223" departSpeed="10" departLane="best"/>
   <vehicle id="E2W_4" type="ego_car" route="E2W" depart="227" departSpeed="10" departLane="best"/>
   <vehicle id="E2W_5" type="ego_car" route="E2W" depart="245" departSpeed="10" departLane="best"/>
   <vehicle id="W2E_6" type="ego_car" route="W2E" depart="253" departSpeed="10" departLane="best"/>
   <vehicle id="W2E_7" type="ego_car" route="W2E" depart="256" departSpeed="10" departLane="best"/>
   <vehicle id="E2W_8" type="ego_car" route="E2W" depart="266" departSpeed="10" departLane="best"/>
   <vehicle id="W2E_9" type="ego_car" route="W2E" depart="289" departSpeed="10" departLane="best"/>
   <vehicle id="E2W_10" type="ego_car" route="E2W" depart="296" departSpeed="10" departLane="best"/>
   <vehicle id="E2W_11" type="ego_car" route="E2W" depart="303" departSpeed="10" departLane="best"/>
   <vehicle id="E2W_12" type="ego_car" route="E2W" depart="304" departSpeed="10" departLane="best"/>
   <vehicle id="E2W_13" type="ego_car" route="E2W" depart="328" departSpeed="10" departLane="best"/>
   <vehicle id="W2E_14" type="ego_car" route="W2E" depart="340" departSpeed="10" departLane="best"/>
   <vehicle id="E2W_15" type="ego_car" route="E2W" depart="350" departSpeed="10" departLane="best"/>
   <vehicle id="E2W_16" type="ego_car" route="E2W" depart="352" departSpeed="10" departLane="best"/>
   <vehicle id="E2W_17" type="ego_car" route="E2W" depart="393" departSpeed="10" departLane="best"/>
   <vehicle id="E2W_18" type="ego_car" route="E2W" depart="397" departSpeed="10" departLane="best"/>
   <vehicle id="E2W_19" type="ego_car" route="E2W" depart="399" departSpeed="10" departLane="best"/>
   <vehicle id="E2W_20" type="ego_car" route="E2W" depart="405" departSpeed="10" departLane="best"/>
   <vehicle id="W2E_21" type="ego_car" route="W2E" depart="406" departSpeed="10" departLane="best"/>
   <vehicle id="W2E_22" type="ego_car" route="W2E" depart="408" departSpeed="10" departLane="best"/>
   <vehicle id="W2E_23" type="ego_car" route="W2E" depart="408" departSpeed="10" departLane="best"/>
   <vehicle id="W2E_24" type="ego_car" route="W2E" depart="424" departSpeed="10" departLane="best"/>
   <vehicle id="E2W_25" type="ego_car" route="E2W" depart="435" departSpeed="10" departLane="best"/>
   <vehicle id="W2E_26" type="ego_car" route="W2E" depart="455" departSpeed="10" departLane="best"/>
   <vehicle id="W2E_27" type="ego_car" route="W2E" depart="460" departSpeed="10" departLane="best"/>
   <vehicle id="E2W_28" type="ego_car" route="E2W" depart="479" departSpeed="10" departLane="best"/>
   <vehicle id="W2E_29" type="ego_car" route="W2E" depart="488" departSpeed="10" departLane="best"/>
   <vehicle id="E2W_30" type="ego_car" route="E2W" depart="488" departSpeed="10" departLane="best"/>
   <vehicle id="E2W_31" type="ego_car" route="E2W" depart="489" departSpeed="10" departLane="best"/>
   <vehicle id="W2E_32" type="ego_car" route="W2E" depart="500" departSpeed="10" departLane="best"/>
   <vehicle id="E2W_33" type="ego_car" route="E2W" depart="509" departSpeed="10" departLane="best"/>
   <vehicle id="E2W_34" type="ego_car" route="E2W" depart="525" departSpeed="10" departLane="best"/>
   <vehicle id="W2E_35" type="ego_car" route="W2E" depart="526" departSpeed="10" departLane="best"/>
   <vehicle id="W2E_36" type="ego_car" route="W2E" depart="534" departSpeed="10" departLane="best"/>
   <vehicle id="W2E_37" type="ego_car" route="W2E" depart="575" departSpeed="10" departLane="best"/>
   <vehicle id="E2W_38" type="ego_car" route="E2W" depart="578" departSpeed="10" departLane="best"/>
   <vehicle id="W2E_39" type="ego_car" route="W2E" depart="579" departSpeed="10" departLane="best"/>
   <vehicle id="E2W_40" type="ego_car" route="E2W" depart="580" departSpeed="10" departLane="best"/>
   <vehicle id="W2E_41" type="ego_car" route="W2E" depart="585" departSpeed="10" departLane="best"/>
   <vehicle id="W2E_42" type="ego_car" route="W2E" depart="588" departSpeed="10" departLane="best"/>
   <vehicle id="W2E_43" type="ego_car" route="W2E" depart="590" departSpeed="10" departLane="best"/>
   <vehicle id="E2W_44" type="ego_car" route="E2W" depart="590" departSpeed="10" departLane="best"/>
   <vehicle id="E2W_45" type="ego_car" route="E2W" depart="605" departSpeed="10" departLane="best"/>
   <vehicle id="E2W_46" type="ego_car" route="E2W" depart="612" departSpeed="10" departLane="best"/>
   <vehicle id="W2E_47" type="ego_car" route="W2E" depart="613" departSpeed="10" departLane="best"/>
   <vehicle id="E2W_48" type="ego_car" route="E2W" depart="615" departSpeed="10" departLane="best"/>
   <vehicle id="E2W_49" type="ego_car" route="E2W" depart="616" departSpeed="10" departLane="best"/>
   <vehicle id="W2E_50" type="ego_car" route="W2E" depart="622" departSpeed="10" departLane="best"/>
   <vehicle id="W2E_51" type="ego_car" route="W2E" depart="623" departSpeed="10" departLane="best"/>
   <vehicle id="W2E_52" type="ego_car" route="W2E" depart="626" departSpeed="10" departLane="best"/>
   <vehicle id="E2W_53" type="ego_car" route="E2W" depart="651" departSpeed="10" departLane="best"/>
   <vehicle id="E2W_54" type="ego_car" route="E2W" depart="659" departSpeed="10" departLane="best"/>
   <vehicle id="E2W_55" type="ego_car" route="E2W" depart="663" departSpeed="10" departLane="best"/>
   <vehicle id="E2W_56" type="ego_car" route="E2W" depart="668" departSpeed="10" departLane="best"/>
   <vehicle id="E2W_57" type="ego_car" route="E2W" depart="668" departSpeed="10" departLane="best"/>
   <vehicle id="E2W_58" type="ego_car" route="E2W" depart="673" departSpeed="10" departLane="best"/>
   <vehicle id="W2E_59" type="ego_car" route="W2E" depart="676" departSpeed="10" departLane="best"/>
   <vehicle id="W2E_60" type="ego_car" route="W2E" depart="700" departSpeed="10" departLane="best"/>
   <vehicle id="W2E_61" type="ego_car" route="W2E" depart="701" departSpeed="10" departLane="best"/>
   <vehicle id="E2W_62" type="ego_car" route="E2W" depart="701" departSpeed="10" departLane="best"/>
   <vehicle id="W2E_63" type="ego_car" route="W2E" depart="711" departSpeed="10" departLane="best"/>
   <vehicle id="E2W_64" type="ego_car" route="E2W" depart="718" departSpeed="10" departLane="best"/>
   <vehicle id="W2E_65" type="ego_car" route="W2E" depart="719" departSpeed="10" departLane="best"/>
   <vehicle id="E2W_66" type="ego_car" route="E2W" depart="733" departSpeed="10" departLane="best"/>
   <vehicle id="W2E_67" type="ego_car" route="W2E" depart="734" departSpeed="10" departLane="best"/>
   <vehicle id="W2E_68" type="ego_car" route="W2E" depart="736" departSpeed="10" departLane="best"/>
   <vehicle id="W2E_69" type="ego_car" route="W2E" depart="738" departSpeed="10" departLane="best"/>
   <vehicle id="W2E_70" type="ego_car" route="W2E" depart="741" departSpeed="10" departLane="best"/>
   <vehicle id="W2E_71" type="ego_car" route="W2E" depart="744" departSpeed="10" departLane="best"/>
   <vehicle id="W2E_72" type="ego_car" route="W2E" depart="761" departSpeed="10" departLane="best"/>
   <vehicle id="E2W_73" type="ego_car" route="E2W" depart="771" departSpeed="10" departLane="best"/>
   <vehicle id="W2E_74" type="ego_car" route="W2E" depart="776" departSpeed="10" departLane="best"/>
   <vehicle id="W2E_75" type="ego_car" route="W2E" depart="787" departSpeed="10" departLane="best"/>
   <vehicle id="E2W_76" type="ego_car" route="E2W" depart="793" departSpeed="10" departLane="best"/>
   <vehicle id="W2E_77" type="ego_car" route="W2E" depart="794" departSpeed="10" departLane="best"/>
   <vehicle id="E2W_78" type="ego_car" route="E2W" depart="805" departSpeed="10" departLane="best"/>
   <vehicle id="E2W_79" type="ego_car" route="E2W" depart="813" departSpeed="10" departLane="best"/>
   <vehicle id="W2E_80" type="ego_car" route="W2E" depart="824" departSpeed="10" departLane="best"/>
   <vehicle id="W2E_81" type="ego_car" route="W2E" depart="840" departSpeed="10" departLane="best"/>
   <vehicle id="E2W_82" type="ego_car" route="E2W" depart="841" departSpeed="10" departLane="best"/>
   <vehicle id="E2W_83" type="ego_car" route="E2W" depart="849" departSpeed="10" departLane="best"/>
   <vehicle id="E2W_84" type="ego_car" route="E2W" depart="853" departSpeed="10" departLane="best"/>
   <vehicle id="W2E_85" type="ego_car" route="W2E" depart="870" departSpeed="10" departLane="best"/>
   <vehicle id="E2W_86" type="ego_car" route="E2W" depart="876" departSpeed="10" departLane="best"/>
   <vehicle id="E2W_87" type="ego_car" route="E2W" depart="883" departSpeed="10" departLane="best"/>
   <vehicle id="E2W_88" type="ego_car" route="E2W" depart="887" departSpeed="10" departLane="best"/>
   <vehicle id="E2W_89" type="ego_car" route="E2W" depart="888" departSpeed="10" departLane="best"/>
   <vehicle id="E2W_90" type="ego_car" route="E2W" depart="889" departSpeed="10" departLane="best"/>
   <vehicle id="E2W_91" type="ego_car" route="E2W" depart="895" departSpeed="10" departLane="best"/>
   <vehicle id="W2E_92" type="ego_car" route="W2E" depart="904" departSpeed="10" departLane="best"/>
   <vehicle id="E2W_93" type="ego_car" route="E2W" depart="905" departSpeed="10" departLane="best"/>
   <vehicle id="W2E_94" type="ego_car" route="W2E" depart="915" departSpeed="10" departLane="best"/>
   <vehicle id="W2E_95" type="ego_car" route="W2E" depart="920" departSpeed="10" departLane="best"/>
   <vehicle id="E2W_96" type="ego_car" route="E2W" depart="936" departSpeed="10" departLane="best"/>
   <vehicle id="W2E_97" type="ego_car" route="W2E" depart="947" departSpeed="10" departLane="best"/>
   <vehicle id="W2E_98" type="ego_car" route="W2E" depart="951" departSpeed="10" departLane="best"/>
   <vehicle id="W2E_99" type="ego_car" route="W2E" depart="963" departSpeed="10" departLane="best"/>
   <vehicle id="W2E_100" type="ego_car" route="W2E" depart="964" departSpeed="10" departLane="best"/>
   <vehicle id="W2E_101" type="ego_car" route="W2E" depart="968" departSpeed="10" departLane="best"/>
   <vehicle id="E2W_102" type="ego_car" route="E2W" depart="968" departSpeed="10" departLane="best"/>
   <vehicle id="E2W_103" type="ego_car" route="E2W" depart="988" departSpeed="10" departLane="best"/>
   <vehicle id="E2W_104" type="ego_car" route="E2W" depart="990" departSpeed="10" departLane="best"/>
   <vehicle id="W2E_105" type="ego_car" route="W2E" depart="1000" departSpeed="10" departLane="best"/>
   <vehicle id="W2E_106" type="ego_car" route="W2E" depart="1000" departSpeed="10" departLane="best"/>
   <vehicle id="E2W_107" type="ego_car" route="E2W" depart="1001" departSpeed="10" departLane="best"/>
   <vehicle id="E2W_108" type="ego_car" route="E2W" depart="1005" departSpeed="10" departLane="best"/>
   <vehicle id="W2E_109" type="ego_car" route="W2E" depart="1006" departSpeed="10" departLane="best"/>
   <vehicle id="W2E_110" type="ego_car" route="W2E" depart="1012" departSpeed="10" departLane="best"/>
   <vehicle id="W2E_111" type="ego_car" route="W2E" depart="1032" departSpeed="10" departLane="best"/>
   <vehicle id="E2W_112" type="ego_car" route="E2W" depart="1032" departSpeed="10" departLane="best"/>
   <vehicle id="W2E_113" type="ego_car" route="W2E" depart="1034" departSpeed="10" departLane="best"/>
   <vehicle id="W2E_114" type="ego_car" route="W2E" depart="1050" departSpeed="10" departLane="best"/>
   <vehicle id="W2E_115" type="ego_car" route="W2E" depart="1060" departSpeed="10" departLane="best"/>
   <vehicle id="W2E_116" type="ego_car" route="W2E" depart="1062" departSpeed="10" departLane="best"/>
   <vehicle id="E2W_117" type="ego_car" route="E2W" depart="1075" departSpeed="10" departLane="best"/>
   <vehicle id="W2E_118" type="ego_car" route="W2E" depart="1078" departSpeed="10" departLane="best"/>
   <vehicle id="E2W_119" type="ego_car" route="E2W" depart="1088" departSpeed="10" departLane="best"/>
   <vehicle id="W2E_120" type="ego_car" route="W2E" depart="1091" departSpeed="10" departLane="best"/>
   <vehicle id="E2W_121" type="ego_car" route="E2W" depart="1092" departSpeed="10" departLane="best"/>
   <vehicle id="W2E_122" type="ego_car" route="W2E" depart="1092" departSpeed="10" departLane="best"/>
   <vehicle id="E2W_123" type="ego_car" route="E2W" depart="1096" departSpeed="10" departLane="best"/>
   <vehicle id="E2W_124" type="ego_car" route="E2W" depart="1117" departSpeed="10" departLane="best"/>
   <vehicle id="W2E_125" type="ego_car" route="W2E" depart="1119" departSpeed="10" departLane="best"/>
   <vehicle id="E2W_126" type="ego_car" route="E2W" depart="1121" departSpeed="10" departLane="best"/>
   <vehicle id="W2E_127" type="ego_car" route="W2E" depart="1121" departSpeed="10" departLane="best"/>
   <vehicle id="W2E_128" type="ego_car" route="W2E" depart="1130" departSpeed="10" departLane="best"/>
   <vehicle id="W2E_129" type="ego_car" route="W2E" depart="1134" departSpeed="10" departLane="best"/>
   <vehicle id="W2E_130" type="ego_car" route="W2E" depart="1143" departSpeed="10" departLane="best"/>
   <vehicle id="E2W_131" type="ego_car" route="E2W" depart="1156" departSpeed="10" departLane="best"/>
   <vehicle id="E2W_132" type="ego_car" route="E2W" depart="1156" departSpeed="10" departLane="best"/>
   <vehicle id="E2W_133" type="ego_car" route="E2W" depart="1181" departSpeed="10" departLane="best"/>
   <vehicle id="W2E_134" type="ego_car" route="W2E" depart="1181" departSpeed="10" departLane="best"/>
   <vehicle id="E2W_135" type="ego_car" route="E2W" depart="1186" departSpeed="10" departLane="best"/>
   <vehicle id="W2E_136" type="ego_car" route="W2E" depart="1217" departSpeed="10" departLane="best"/>
   <vehicle id="W2E_137" type="ego_car" route="W2E" depart="1237" departSpeed="10" departLane="best"/>
   <vehicle id="E2W_138" type="ego_car" route="E2W" depart="1247" departSpeed="10" departLane="best"/>
   <vehicle id="E2W_139" type="ego_car" route="E2W" depart="1251" departSpeed="10" departLane="best"/>
   <vehicle id="E2W_140" type="ego_car" route="E2W" depart="1259" departSpeed="10" departLane="best"/>
   <vehicle id="W2E_141" type="ego_car" route="W2E" depart="1270" departSpeed="10" departLane="best"/>
   <vehicle id="E2W_142" type="ego_car" route="E2W" depart="1271" departSpeed="10" departLane="best"/>
   <vehicle id="E2W_143" type="ego_car" route="E2W" depart="1281" departSpeed="10" departLane="best"/>
   <vehicle id="E2W_144" type="ego_car" route="E2W" depart="1302" departSpeed="10" departLane="best"/>
   <vehicle id="E2W_145" type="ego_car" route="E2W" depart="1310" departSpeed="10" departLane="best"/>
   <vehicle id="W2E_146" type="ego_car" route="W2E" depart="1361" departSpeed="10" departLane="best"/>
   <vehicle id="W2E_147" type="ego_car" route="W2E" depart="1365" departSpeed="10" departLane="best"/>
   <vehicle id="E2W_148" type="ego_car" route="E2W" depart="1391" departSpeed="10" departLane="best"/>
   <vehicle id="W2E_149" type="ego_car" route="W2E" depart="1399" departSpeed="10" departLane="best"/>
   <vehicle id="W2E_150" type="ego_car" route="W2E" depart="1400" departSpeed="10" departLane="best"/>
   <vehicle id="W2E_151" type="ego_car" route="W2E" depart="1410" departSpeed="10" departLane="best"/>
   <vehicle id="W2E_152" type="ego_car" route="W2E" depart="1428" departSpeed="10" departLane="best"/>
   <vehicle id="E2W_153" type="ego_car" route="E2W" depart="1444" departSpeed="10" departLane="best"/>
   <vehicle id="W2E_154" type="ego_car" route="W2E" depart="1446" departSpeed="10" departLane="best"/>
   <vehicle id="W2E_155" type="ego_car" route="W2E" depart="1463" departSpeed="10" departLane="best"/>
   <vehicle id="W2E_156" type="ego_car" route="W2E" depart="1467" departSpeed="10" departLane="best"/>
   <vehicle id="E2W_157" type="ego_car" route="E2W" depart="1473" departSpeed="10" departLane="best"/>
   <vehicle id="E2W_158" type="ego_car" route="E2W" depart="1495" departSpeed="10" departLane="best"/>
   <vehicle id="E2W_159" type="ego_car" route="E2W" depart="1495" departSpeed="10" departLane="best"/>
   <vehicle id="W2E_160" type="ego_car" route="W2E" depart="1503" departSpeed="10" departLane="best"/>
   <vehicle id="W2E_161" type="ego_car" route="W2E" depart="1511" departSpeed="10" departLane="best"/>
   <vehicle id="W2E_162" type="ego_car" route="W2E" depart="1511" departSpeed="10" departLane="best"/>
   <vehicle id="E2W_163" type="ego_car" route="E2W" depart="1513" departSpeed="10" departLane="best"/>
   <vehicle id="W2E_164" type="ego_car" route="W2E" depart="1528" departSpeed="10" departLane="best"/>
   <vehicle id="E2W_165" type="ego_car" route="E2W" depart="1537" departSpeed="10" departLane="best"/>
   <vehicle id="E2W_166" type="ego_car" route="E2W" depart="1539" departSpeed="10" departLane="best"/>
   <vehicle id="W2E_167" type="ego_car" route="W2E" depart="1550" departSpeed="10" departLane="best"/>
   <vehicle id="E2W_168" type="ego_car" route="E2W" depart="1575" departSpeed="10" departLane="best"/>
   <vehicle id="E2W_169" type="ego_car" route="E2W" depart="1591" departSpeed="10" departLane="best"/>
   <vehicle id="W2E_170" type="ego_car" route="W2E" depart="1601" departSpeed="10" departLane="best"/>
   <vehicle id="E2W_171" type="ego_car" route="E2W" depart="1661" departSpeed="10" departLane="best"/>
   <vehicle id="W2E_172" type="ego_car" route="W2E" depart="1662" departSpeed="10" departLane="best"/>
   <vehicle id="W2E_173" type="ego_car" route="W2E" depart="1672" departSpeed="10" departLane="best"/>
   <vehicle id="W2E_174" type="ego_car" route="W2E" depart="1682" departSpeed="10" departLane="best"/>
   <vehicle id="E2W_175" type="ego_car" route="E2W" depart="1691" departSpeed="10" departLane="best"/>
   <vehicle id="E2W_176" type="ego_car" route="E2W" depart="1705" departSpeed="10" departLane="best"/>
   <vehicle id="E2W_177" type="ego_car" route="E2W" depart="1719" departSpeed="10" departLane="best"/>
   <vehicle id="E2W_178" type="ego_car" route="E2W" depart="1744" departSpeed="10" departLane="best"/>
   <vehicle id="E2W_179" type="ego_car" route="E2W" depart="1754" departSpeed="10" departLane="best"/>
   <vehicle id="E2W_180" type="ego_car" route="E2W" depart="1762" departSpeed="10" departLane="best"/>
   <vehicle id="W2E_181" type="ego_car" route="W2E" depart="1772" departSpeed="10" departLane="best"/>
   <vehicle id="W2E_182" type="ego_car" route="W2E" depart="1780" departSpeed="10" departLane="best"/>
   <vehicle id="W2E_183" type="ego_car" route="W2E" depart="1792" departSpeed="10" departLane="best"/>
   <vehicle id="W2E_184" type="ego_car" route="W2E" depart="1863" departSpeed="10" departLane="best"/>
   <vehicle id="E2W_185" type="ego_car" route="E2W" depart="1905" departSpeed="10" departLane="best"/>
   <vehicle id="W2E_186" type="ego_car" route="W2E" depart="1914" departSpeed="10" departLane="best"/>
   <vehicle id="E2W_187" type="ego_car" route="E2W" depart="2020" departSpeed="10" departLane="best"/>
   <vehicle id="W2E_188" type="ego_car" route="W2E" depart="2037" departSpeed="10" departLane="best"/>
   <vehicle id="E2W_189" type="ego_car" route="E2W" depart="2048" departSpeed="10" departLane="best"/>
   <vehicle id="E2W_190" type="ego_car" route="E2W" depart="2106" departSpeed="10" departLane="best"/>
   <vehicle id="W2E_191" type="ego_car" route="W2E" depart="2110" departSpeed="10" departLane="best"/>
   <vehicle id="E2W_192" type="ego_car" route="E2W" depart="2162" departSpeed="10" departLane="best"/>
   <vehicle id="W2E_193" type="ego_car" route="W2E" depart="2200" departSpeed="10" departLane="best"/>
   <vehicle id="E2W_194" type="ego_car" route="E2W" depart="2228" departSpeed="10" departLane="best"/>
   <vehicle id="E2W_195" type="ego_car" route="E2W" depart="2270" departSpeed="10" departLane="best"/>
   <vehicle id="W2E_196" type="ego_car" route="W2E" depart="2330" departSpeed="10" departLane="best"/>
   <vehicle id="W2E_197" type="ego_car" route="W2E" depart="2361" departSpeed="10" departLane="best"/>
   <vehicle id="E2W_198" type="ego_car" route="E2W" depart="2782" departSpeed="10" departLane="best"/>
   <vehicle id="E2W_199" type="ego_car" route="E2W" depart="2863" departSpeed="10" departLane="best"/>
   <vehicle id="W2E_200" type="ego_car" route="W2E" depart="3027" departSpeed="10" departLane="best"/>
</routes>
