<routes>

        <vType id = 'ego_car' vclass="evehicle" emissionClass="Energy/unknown" tau="1" accel="3.0" decel="3.0" color="#00FFFF" sigma="0.2" length="4.90" minGap="1" maxSpeed="20" guiShape="passenger">
            <param key="has.battery.device" value="true"/>
            <param key="maximumBatteryCapacity" value="38000"/> 
            <param key="maximumPower" value="200000"/>
            <param key="vehicleMass" value="1830"/>
            <param key="frontSurfaceArea" value="2.6"/>
            <param key="airDragCoefficient" value="0.35"/>
            <param key="internalMomentOfInertia" value="0.01"/>
            <param key="radialDragCoefficient" value="0.1"/>
            <param key="rollDragCoefficient" value="0.01"/>
            <param key="constantPowerIntake" value="100"/>
            <param key="propulsionEfficiency" value="0.9"/>
            <param key="recuperationEfficiency" value="0.9"/>
            <param key="stoppingThreshold" value="0.1"/>
        </vType>
        
        <route id="W2E" edges="WE0 WE1 WE2 WE3 WE4 WE5"/>
        <route id="E2W" edges="EW0 EW1 EW2 EW3 EW4 EW5"/>
   <vehicle id="E2W_1" type="ego_car" route="E2W" depart="81" departSpeed="10" departLane="best"/>
   <vehicle id="E2W_2" type="ego_car" route="E2W" depart="115" departSpeed="10" departLane="best"/>
   <vehicle id="W2E_3" type="ego_car" route="W2E" depart="116" departSpeed="10" departLane="best"/>
   <vehicle id="E2W_4" type="ego_car" route="E2W" depart="166" departSpeed="10" departLane="best"/>
   <vehicle id="E2W_5" type="ego_car" route="E2W" depart="186" departSpeed="10" departLane="best"/>
   <vehicle id="E2W_6" type="ego_car" route="E2W" depart="207" departSpeed="10" departLane="best"/>
   <vehicle id="E2W_7" type="ego_car" route="E2W" depart="213" departSpeed="10" departLane="best"/>
   <vehicle id="E2W_8" type="ego_car" route="E2W" depart="219" departSpeed="10" departLane="best"/>
   <vehicle id="E2W_9" type="ego_car" route="E2W" depart="250" departSpeed="10" departLane="best"/>
   <vehicle id="W2E_10" type="ego_car" route="W2E" depart="261" departSpeed="10" departLane="best"/>
   <vehicle id="W2E_11" type="ego_car" route="W2E" depart="265" departSpeed="10" departLane="best"/>
   <vehicle id="W2E_12" type="ego_car" route="W2E" depart="272" departSpeed="10" departLane="best"/>
   <vehicle id="W2E_13" type="ego_car" route="W2E" depart="274" departSpeed="10" departLane="best"/>
   <vehicle id="W2E_14" type="ego_car" route="W2E" depart="280" departSpeed="10" departLane="best"/>
   <vehicle id="W2E_15" type="ego_car" route="W2E" depart="287" departSpeed="10" departLane="best"/>
   <vehicle id="E2W_16" type="ego_car" route="E2W" depart="292" departSpeed="10" departLane="best"/>
   <vehicle id="W2E_17" type="ego_car" route="W2E" depart="295" departSpeed="10" departLane="best"/>
   <vehicle id="E2W_18" type="ego_car" route="E2W" depart="303" departSpeed="10" departLane="best"/>
   <vehicle id="E2W_19" type="ego_car" route="E2W" depart="306" departSpeed="10" departLane="best"/>
   <vehicle id="W2E_20" type="ego_car" route="W2E" depart="339" departSpeed="10" departLane="best"/>
   <vehicle id="E2W_21" type="ego_car" route="E2W" depart="352" departSpeed="10" departLane="best"/>
   <vehicle id="W2E_22" type="ego_car" route="W2E" depart="357" departSpeed="10" departLane="best"/>
   <vehicle id="W2E_23" type="ego_car" route="W2E" depart="362" departSpeed="10" departLane="best"/>
   <vehicle id="W2E_24" type="ego_car" route="W2E" depart="376" departSpeed="10" departLane="best"/>
   <vehicle id="W2E_25" type="ego_car" route="W2E" depart="386" departSpeed="10" departLane="best"/>
   <vehicle id="W2E_26" type="ego_car" route="W2E" depart="406" departSpeed="10" departLane="best"/>
   <vehicle id="W2E_27" type="ego_car" route="W2E" depart="406" departSpeed="10" departLane="best"/>
   <vehicle id="W2E_28" type="ego_car" route="W2E" depart="407" departSpeed="10" departLane="best"/>
   <vehicle id="E2W_29" type="ego_car" route="E2W" depart="410" departSpeed="10" departLane="best"/>
   <vehicle id="W2E_30" type="ego_car" route="W2E" depart="428" departSpeed="10" departLane="best"/>
   <vehicle id="W2E_31" type="ego_car" route="W2E" depart="449" departSpeed="10" departLane="best"/>
   <vehicle id="W2E_32" type="ego_car" route="W2E" depart="451" departSpeed="10" departLane="best"/>
   <vehicle id="W2E_33" type="ego_car" route="W2E" depart="452" departSpeed="10" departLane="best"/>
   <vehicle id="E2W_34" type="ego_car" route="E2W" depart="455" departSpeed="10" departLane="best"/>
   <vehicle id="E2W_35" type="ego_car" route="E2W" depart="473" departSpeed="10" departLane="best"/>
   <vehicle id="W2E_36" type="ego_car" route="W2E" depart="487" departSpeed="10" departLane="best"/>
   <vehicle id="W2E_37" type="ego_car" route="W2E" depart="490" departSpeed="10" departLane="best"/>
   <vehicle id="W2E_38" type="ego_car" route="W2E" depart="496" departSpeed="10" departLane="best"/>
   <vehicle id="W2E_39" type="ego_car" route="W2E" depart="510" departSpeed="10" departLane="best"/>
   <vehicle id="W2E_40" type="ego_car" route="W2E" depart="514" departSpeed="10" departLane="best"/>
   <vehicle id="E2W_41" type="ego_car" route="E2W" depart="516" departSpeed="10" departLane="best"/>
   <vehicle id="E2W_42" type="ego_car" route="E2W" depart="522" departSpeed="10" departLane="best"/>
   <vehicle id="E2W_43" type="ego_car" route="E2W" depart="530" departSpeed="10" departLane="best"/>
   <vehicle id="W2E_44" type="ego_car" route="W2E" depart="530" departSpeed="10" departLane="best"/>
   <vehicle id="E2W_45" type="ego_car" route="E2W" depart="538" departSpeed="10" departLane="best"/>
   <vehicle id="W2E_46" type="ego_car" route="W2E" depart="550" departSpeed="10" departLane="best"/>
   <vehicle id="E2W_47" type="ego_car" route="E2W" depart="551" departSpeed="10" departLane="best"/>
   <vehicle id="E2W_48" type="ego_car" route="E2W" depart="558" departSpeed="10" departLane="best"/>
   <vehicle id="W2E_49" type="ego_car" route="W2E" depart="566" departSpeed="10" departLane="best"/>
   <vehicle id="E2W_50" type="ego_car" route="E2W" depart="582" departSpeed="10" departLane="best"/>
   <vehicle id="W2E_51" type="ego_car" route="W2E" depart="599" departSpeed="10" departLane="best"/>
   <vehicle id="W2E_52" type="ego_car" route="W2E" depart="600" departSpeed="10" departLane="best"/>
   <vehicle id="E2W_53" type="ego_car" route="E2W" depart="611" departSpeed="10" departLane="best"/>
   <vehicle id="W2E_54" type="ego_car" route="W2E" depart="622" departSpeed="10" departLane="best"/>
   <vehicle id="W2E_55" type="ego_car" route="W2E" depart="628" departSpeed="10" departLane="best"/>
   <vehicle id="E2W_56" type="ego_car" route="E2W" depart="637" departSpeed="10" departLane="best"/>
   <vehicle id="E2W_57" type="ego_car" route="E2W" depart="648" departSpeed="10" departLane="best"/>
   <vehicle id="W2E_58" type="ego_car" route="W2E" depart="648" departSpeed="10" departLane="best"/>
   <vehicle id="E2W_59" type="ego_car" route="E2W" depart="675" departSpeed="10" departLane="best"/>
   <vehicle id="W2E_60" type="ego_car" route="W2E" depart="676" departSpeed="10" departLane="best"/>
   <vehicle id="W2E_61" type="ego_car" route="W2E" depart="688" departSpeed="10" departLane="best"/>
   <vehicle id="W2E_62" type="ego_car" route="W2E" depart="693" departSpeed="10" departLane="best"/>
   <vehicle id="W2E_63" type="ego_car" route="W2E" depart="694" departSpeed="10" departLane="best"/>
   <vehicle id="W2E_64" type="ego_car" route="W2E" depart="702" departSpeed="10" departLane="best"/>
   <vehicle id="E2W_65" type="ego_car" route="E2W" depart="709" departSpeed="10" departLane="best"/>
   <vehicle id="E2W_66" type="ego_car" route="E2W" depart="713" departSpeed="10" departLane="best"/>
   <vehicle id="W2E_67" type="ego_car" route="W2E" depart="713" departSpeed="10" departLane="best"/>
   <vehicle id="E2W_68" type="ego_car" route="E2W" depart="726" departSpeed="10" departLane="best"/>
   <vehicle id="E2W_69" type="ego_car" route="E2W" depart="730" departSpeed="10" departLane="best"/>
   <vehicle id="W2E_70" type="ego_car" route="W2E" depart="730" departSpeed="10" departLane="best"/>
   <vehicle id="E2W_71" type="ego_car" route="E2W" depart="739" departSpeed="10" departLane="best"/>
   <vehicle id="W2E_72" type="ego_car" route="W2E" depart="741" departSpeed="10" departLane="best"/>
   <vehicle id="E2W_73" type="ego_car" route="E2W" depart="744" departSpeed="10" departLane="best"/>
   <vehicle id="W2E_74" type="ego_car" route="W2E" depart="746" departSpeed="10" departLane="best"/>
   <vehicle id="W2E_75" type="ego_car" route="W2E" depart="747" departSpeed="10" departLane="best"/>
   <vehicle id="W2E_76" type="ego_car" route="W2E" depart="747" departSpeed="10" departLane="best"/>
   <vehicle id="E2W_77" type="ego_car" route="E2W" depart="749" departSpeed="10" departLane="best"/>
   <vehicle id="W2E_78" type="ego_car" route="W2E" depart="759" departSpeed="10" departLane="best"/>
   <vehicle id="W2E_79" type="ego_car" route="W2E" depart="763" departSpeed="10" departLane="best"/>
   <vehicle id="E2W_80" type="ego_car" route="E2W" depart="770" departSpeed="10" departLane="best"/>
   <vehicle id="E2W_81" type="ego_car" route="E2W" depart="774" departSpeed="10" departLane="best"/>
   <vehicle id="W2E_82" type="ego_car" route="W2E" depart="776" departSpeed="10" departLane="best"/>
   <vehicle id="W2E_83" type="ego_car" route="W2E" depart="777" departSpeed="10" departLane="best"/>
   <vehicle id="E2W_84" type="ego_car" route="E2W" depart="780" departSpeed="10" departLane="best"/>
   <vehicle id="E2W_85" type="ego_car" route="E2W" depart="780" departSpeed="10" departLane="best"/>
   <vehicle id="E2W_86" type="ego_car" route="E2W" depart="787" departSpeed="10" departLane="best"/>
   <vehicle id="E2W_87" type="ego_car" route="E2W" depart="797" departSpeed="10" departLane="best"/>
   <vehicle id="E2W_88" type="ego_car" route="E2W" depart="803" departSpeed="10" departLane="best"/>
   <vehicle id="W2E_89" type="ego_car" route="W2E" depart="807" departSpeed="10" departLane="best"/>
   <vehicle id="W2E_90" type="ego_car" route="W2E" depart="814" departSpeed="10" departLane="best"/>
   <vehicle id="E2W_91" type="ego_car" route="E2W" depart="836" departSpeed="10" departLane="best"/>
   <vehicle id="W2E_92" type="ego_car" route="W2E" depart="842" departSpeed="10" departLane="best"/>
   <vehicle id="W2E_93" type="ego_car" route="W2E" depart="843" departSpeed="10" departLane="best"/>
   <vehicle id="E2W_94" type="ego_car" route="E2W" depart="852" departSpeed="10" departLane="best"/>
   <vehicle id="E2W_95" type="ego_car" route="E2W" depart="853" departSpeed="10" departLane="best"/>
   <vehicle id="W2E_96" type="ego_car" route="W2E" depart="861" departSpeed="10" departLane="best"/>
   <vehicle id="W2E_97" type="ego_car" route="W2E" depart="864" departSpeed="10" departLane="best"/>
   <vehicle id="W2E_98" type="ego_car" route="W2E" depart="872" departSpeed="10" departLane="best"/>
   <vehicle id="W2E_99" type="ego_car" route="W2E" depart="874" departSpeed="10" departLane="best"/>
   <vehicle id="W2E_100" type="ego_car" route="W2E" depart="884" departSpeed="10" departLane="best"/>
   <vehicle id="E2W_101" type="ego_car" route="E2W" depart="889" departSpeed="10" departLane="best"/>
   <vehicle id="W2E_102" type="ego_car" route="W2E" depart="899" departSpeed="10" departLane="best"/>
   <vehicle id="E2W_103" type="ego_car" route="E2W" depart="901" departSpeed="10" departLane="best"/>
   <vehicle id="W2E_104" type="ego_car" route="W2E" depart="910" departSpeed="10" departLane="best"/>
   <vehicle id="W2E_105" type="ego_car" route="W2E" depart="915" departSpeed="10" departLane="best"/>
   <vehicle id="E2W_106" type="ego_car" route="E2W" depart="925" departSpeed="10" departLane="best"/>
   <vehicle id="W2E_107" type="ego_car" route="W2E" depart="932" departSpeed="10" departLane="best"/>
   <vehicle id="E2W_108" type="ego_car" route="E2W" depart="934" departSpeed="10" departLane="best"/>
   <vehicle id="W2E_109" type="ego_car" route="W2E" depart="934" departSpeed="10" departLane="best"/>
   <vehicle id="W2E_110" type="ego_car" route="W2E" depart="936" departSpeed="10" departLane="best"/>
   <vehicle id="W2E_111" type="ego_car" route="W2E" depart="943" departSpeed="10" departLane="best"/>
   <vehicle id="W2E_112" type="ego_car" route="W2E" depart="953" departSpeed="10" departLane="best"/>
   <vehicle id="E2W_113" type="ego_car" route="E2W" depart="955" departSpeed="10" departLane="best"/>
   <vehicle id="W2E_114" type="ego_car" route="W2E" depart="955" departSpeed="10" departLane="best"/>
   <vehicle id="E2W_115" type="ego_car" route="E2W" depart="963" departSpeed="10" departLane="best"/>
   <vehicle id="W2E_116" type="ego_car" route="W2E" depart="972" departSpeed="10" departLane="best"/>
   <vehicle id="E2W_117" type="ego_car" route="E2W" depart="975" departSpeed="10" departLane="best"/>
   <vehicle id="E2W_118" type="ego_car" route="E2W" depart="977" departSpeed="10" departLane="best"/>
   <vehicle id="W2E_119" type="ego_car" route="W2E" depart="979" departSpeed="10" departLane="best"/>
   <vehicle id="E2W_120" type="ego_car" route="E2W" depart="983" departSpeed="10" departLane="best"/>
   <vehicle id="E2W_121" type="ego_car" route="E2W" depart="985" departSpeed="10" departLane="best"/>
   <vehicle id="E2W_122" type="ego_car" route="E2W" depart="998" departSpeed="10" departLane="best"/>
   <vehicle id="W2E_123" type="ego_car" route="W2E" depart="1008" departSpeed="10" departLane="best"/>
   <vehicle id="W2E_124" type="ego_car" route="W2E" depart="1010" departSpeed="10" departLane="best"/>
   <vehicle id="E2W_125" type="ego_car" route="E2W" depart="1016" departSpeed="10" departLane="best"/>
   <vehicle id="E2W_126" type="ego_car" route="E2W" depart="1017" departSpeed="10" departLane="best"/>
   <vehicle id="W2E_127" type="ego_car" route="W2E" depart="1032" departSpeed="10" departLane="best"/>
   <vehicle id="E2W_128" type="ego_car" route="E2W" depart="1036" departSpeed="10" departLane="best"/>
   <vehicle id="E2W_129" type="ego_car" route="E2W" depart="1040" departSpeed="10" departLane="best"/>
   <vehicle id="W2E_130" type="ego_car" route="W2E" depart="1044" departSpeed="10" departLane="best"/>
   <vehicle id="W2E_131" type="ego_car" route="W2E" depart="1053" departSpeed="10" departLane="best"/>
   <vehicle id="E2W_132" type="ego_car" route="E2W" depart="1060" departSpeed="10" departLane="best"/>
   <vehicle id="E2W_133" type="ego_car" route="E2W" depart="1060" departSpeed="10" departLane="best"/>
   <vehicle id="E2W_134" type="ego_car" route="E2W" depart="1065" departSpeed="10" departLane="best"/>
   <vehicle id="W2E_135" type="ego_car" route="W2E" depart="1065" departSpeed="10" departLane="best"/>
   <vehicle id="E2W_136" type="ego_car" route="E2W" depart="1069" departSpeed="10" departLane="best"/>
   <vehicle id="W2E_137" type="ego_car" route="W2E" depart="1069" departSpeed="10" departLane="best"/>
   <vehicle id="E2W_138" type="ego_car" route="E2W" depart="1105" departSpeed="10" departLane="best"/>
   <vehicle id="E2W_139" type="ego_car" route="E2W" depart="1117" departSpeed="10" departLane="best"/>
   <vehicle id="E2W_140" type="ego_car" route="E2W" depart="1122" departSpeed="10" departLane="best"/>
   <vehicle id="E2W_141" type="ego_car" route="E2W" depart="1125" departSpeed="10" departLane="best"/>
   <vehicle id="W2E_142" type="ego_car" route="W2E" depart="1130" departSpeed="10" departLane="best"/>
   <vehicle id="E2W_143" type="ego_car" route="E2W" depart="1133" departSpeed="10" departLane="best"/>
   <vehicle id="E2W_144" type="ego_car" route="E2W" depart="1141" departSpeed="10" departLane="best"/>
   <vehicle id="E2W_145" type="ego_car" route="E2W" depart="1148" departSpeed="10" departLane="best"/>
   <vehicle id="E2W_146" type="ego_car" route="E2W" depart="1154" departSpeed="10" departLane="best"/>
   <vehicle id="E2W_147" type="ego_car" route="E2W" depart="1157" departSpeed="10" departLane="best"/>
   <vehicle id="W2E_148" type="ego_car" route="W2E" depart="1162" departSpeed="10" departLane="best"/>
   <vehicle id="W2E_149" type="ego_car" route="W2E" depart="1179" departSpeed="10" departLane="best"/>
   <vehicle id="E2W_150" type="ego_car" route="E2W" depart="1199" departSpeed="10" departLane="best"/>
   <vehicle id="E2W_151" type="ego_car" route="E2W" depart="1208" departSpeed="10" departLane="best"/>
   <vehicle id="E2W_152" type="ego_car" route="E2W" depart="1217" departSpeed="10" departLane="best"/>
   <vehicle id="W2E_153" type="ego_car" route="W2E" depart="1224" departSpeed="10" departLane="best"/>
   <vehicle id="E2W_154" type="ego_car" route="E2W" depart="1231" departSpeed="10" departLane="best"/>
   <vehicle id="W2E_155" type="ego_car" route="W2E" depart="1232" departSpeed="10" departLane="best"/>
   <vehicle id="W2E_156" type="ego_car" route="W2E" depart="1232" departSpeed="10" departLane="best"/>
   <vehicle id="E2W_157" type="ego_car" route="E2W" depart="1237" departSpeed="10" departLane="best"/>
   <vehicle id="E2W_158" type="ego_car" route="E2W" depart="1238" departSpeed="10" departLane="best"/>
   <vehicle id="W2E_159" type="ego_car" route="W2E" depart="1249" departSpeed="10" departLane="best"/>
   <vehicle id="E2W_160" type="ego_car" route="E2W" depart="1255" departSpeed="10" departLane="best"/>
   <vehicle id="E2W_161" type="ego_car" route="E2W" depart="1264" departSpeed="10" departLane="best"/>
   <vehicle id="E2W_162" type="ego_car" route="E2W" depart="1266" departSpeed="10" departLane="best"/>
   <vehicle id="W2E_163" type="ego_car" route="W2E" depart="1270" departSpeed="10" departLane="best"/>
   <vehicle id="E2W_164" type="ego_car" route="E2W" depart="1272" departSpeed="10" departLane="best"/>
   <vehicle id="W2E_165" type="ego_car" route="W2E" depart="1280" departSpeed="10" departLane="best"/>
   <vehicle id="E2W_166" type="ego_car" route="E2W" depart="1294" departSpeed="10" departLane="best"/>
   <vehicle id="E2W_167" type="ego_car" route="E2W" depart="1296" departSpeed="10" departLane="best"/>
   <vehicle id="E2W_168" type="ego_car" route="E2W" depart="1307" departSpeed="10" departLane="best"/>
   <vehicle id="W2E_169" type="ego_car" route="W2E" depart="1312" departSpeed="10" departLane="best"/>
   <vehicle id="E2W_170" type="ego_car" route="E2W" depart="1315" departSpeed="10" departLane="best"/>
   <vehicle id="W2E_171" type="ego_car" route="W2E" depart="1330" departSpeed="10" departLane="best"/>
   <vehicle id="E2W_172" type="ego_car" route="E2W" depart="1332" departSpeed="10" departLane="best"/>
   <vehicle id="E2W_173" type="ego_car" route="E2W" depart="1335" departSpeed="10" departLane="best"/>
   <vehicle id="W2E_174" type="ego_car" route="W2E" depart="1337" departSpeed="10" departLane="best"/>
   <vehicle id="E2W_175" type="ego_car" route="E2W" depart="1344" departSpeed="10" departLane="best"/>
   <vehicle id="W2E_176" type="ego_car" route="W2E" depart="1361" departSpeed="10" departLane="best"/>
   <vehicle id="E2W_177" type="ego_car" route="E2W" depart="1362" departSpeed="10" departLane="best"/>
   <vehicle id="W2E_178" type="ego_car" route="W2E" depart="1378" departSpeed="10" departLane="best"/>
   <vehicle id="E2W_179" type="ego_car" route="E2W" depart="1392" departSpeed="10" departLane="best"/>
   <vehicle id="W2E_180" type="ego_car" route="W2E" depart="1393" departSpeed="10" departLane="best"/>
   <vehicle id="E2W_181" type="ego_car" route="E2W" depart="1395" departSpeed="10" departLane="best"/>
   <vehicle id="E2W_182" type="ego_car" route="E2W" depart="1400" departSpeed="10" departLane="best"/>
   <vehicle id="E2W_183" type="ego_car" route="E2W" depart="1405" departSpeed="10" departLane="best"/>
   <vehicle id="W2E_184" type="ego_car" route="W2E" depart="1408" departSpeed="10" departLane="best"/>
   <vehicle id="W2E_185" type="ego_car" route="W2E" depart="1409" departSpeed="10" departLane="best"/>
   <vehicle id="W2E_186" type="ego_car" route="W2E" depart="1410" departSpeed="10" departLane="best"/>
   <vehicle id="W2E_187" type="ego_car" route="W2E" depart="1413" departSpeed="10" departLane="best"/>
   <vehicle id="E2W_188" type="ego_car" route="E2W" depart="1423" departSpeed="10" departLane="best"/>
   <vehicle id="W2E_189" type="ego_car" route="W2E" depart="1428" departSpeed="10" departLane="best"/>
   <vehicle id="W2E_190" type="ego_car" route="W2E" depart="1437" departSpeed="10" departLane="best"/>
   <vehicle id="E2W_191" type="ego_car" route="E2W" depart="1443" departSpeed="10" departLane="best"/>
   <vehicle id="W2E_192" type="ego_car" route="W2E" depart="1453" departSpeed="10" departLane="best"/>
   <vehicle id="W2E_193" type="ego_car" route="W2E" depart="1454" departSpeed="10" departLane="best"/>
   <vehicle id="W2E_194" type="ego_car" route="W2E" depart="1458" departSpeed="10" departLane="best"/>
   <vehicle id="E2W_195" type="ego_car" route="E2W" depart="1464" departSpeed="10" departLane="best"/>
   <vehicle id="E2W_196" type="ego_car" route="E2W" depart="1471" departSpeed="10" departLane="best"/>
   <vehicle id="E2W_197" type="ego_car" route="E2W" depart="1478" departSpeed="10" departLane="best"/>
   <vehicle id="W2E_198" type="ego_car" route="W2E" depart="1484" departSpeed="10" departLane="best"/>
   <vehicle id="W2E_199" type="ego_car" route="W2E" depart="1510" departSpeed="10" departLane="best"/>
   <vehicle id="W2E_200" type="ego_car" route="W2E" depart="1511" departSpeed="10" departLane="best"/>
   <vehicle id="W2E_201" type="ego_car" route="W2E" depart="1516" departSpeed="10" departLane="best"/>
   <vehicle id="W2E_202" type="ego_car" route="W2E" depart="1522" departSpeed="10" departLane="best"/>
   <vehicle id="E2W_203" type="ego_car" route="E2W" depart="1527" departSpeed="10" departLane="best"/>
   <vehicle id="E2W_204" type="ego_car" route="E2W" depart="1530" departSpeed="10" departLane="best"/>
   <vehicle id="E2W_205" type="ego_car" route="E2W" depart="1546" departSpeed="10" departLane="best"/>
   <vehicle id="E2W_206" type="ego_car" route="E2W" depart="1576" departSpeed="10" departLane="best"/>
   <vehicle id="E2W_207" type="ego_car" route="E2W" depart="1589" departSpeed="10" departLane="best"/>
   <vehicle id="E2W_208" type="ego_car" route="E2W" depart="1620" departSpeed="10" departLane="best"/>
   <vehicle id="E2W_209" type="ego_car" route="E2W" depart="1623" departSpeed="10" departLane="best"/>
   <vehicle id="E2W_210" type="ego_car" route="E2W" depart="1636" departSpeed="10" departLane="best"/>
   <vehicle id="E2W_211" type="ego_car" route="E2W" depart="1639" departSpeed="10" departLane="best"/>
   <vehicle id="E2W_212" type="ego_car" route="E2W" depart="1642" departSpeed="10" departLane="best"/>
   <vehicle id="W2E_213" type="ego_car" route="W2E" depart="1651" departSpeed="10" departLane="best"/>
   <vehicle id="W2E_214" type="ego_car" route="W2E" depart="1658" departSpeed="10" departLane="best"/>
   <vehicle id="W2E_215" type="ego_car" route="W2E" depart="1692" departSpeed="10" departLane="best"/>
   <vehicle id="W2E_216" type="ego_car" route="W2E" depart="1693" departSpeed="10" departLane="best"/>
   <vehicle id="E2W_217" type="ego_car" route="E2W" depart="1698" departSpeed="10" departLane="best"/>
   <vehicle id="E2W_218" type="ego_car" route="E2W" depart="1705" departSpeed="10" departLane="best"/>
   <vehicle id="W2E_219" type="ego_car" route="W2E" depart="1709" departSpeed="10" departLane="best"/>
   <vehicle id="W2E_220" type="ego_car" route="W2E" depart="1709" departSpeed="10" departLane="best"/>
   <vehicle id="E2W_221" type="ego_car" route="E2W" depart="1732" departSpeed="10" departLane="best"/>
   <vehicle id="W2E_222" type="ego_car" route="W2E" depart="1737" departSpeed="10" departLane="best"/>
   <vehicle id="W2E_223" type="ego_car" route="W2E" depart="1749" departSpeed="10" departLane="best"/>
   <vehicle id="W2E_224" type="ego_car" route="W2E" depart="1753" departSpeed="10" departLane="best"/>
   <vehicle id="E2W_225" type="ego_car" route="E2W" depart="1757" departSpeed="10" departLane="best"/>
   <vehicle id="W2E_226" type="ego_car" route="W2E" depart="1777" departSpeed="10" departLane="best"/>
   <vehicle id="W2E_227" type="ego_car" route="W2E" depart="1799" departSpeed="10" departLane="best"/>
   <vehicle id="W2E_228" type="ego_car" route="W2E" depart="1802" departSpeed="10" departLane="best"/>
   <vehicle id="E2W_229" type="ego_car" route="E2W" depart="1818" departSpeed="10" departLane="best"/>
   <vehicle id="W2E_230" type="ego_car" route="W2E" depart="1833" departSpeed="10" departLane="best"/>
   <vehicle id="E2W_231" type="ego_car" route="E2W" depart="1860" departSpeed="10" departLane="best"/>
   <vehicle id="E2W_232" type="ego_car" route="E2W" depart="1863" departSpeed="10" departLane="best"/>
   <vehicle id="E2W_233" type="ego_car" route="E2W" depart="1864" departSpeed="10" departLane="best"/>
   <vehicle id="E2W_234" type="ego_car" route="E2W" depart="1873" departSpeed="10" departLane="best"/>
   <vehicle id="E2W_235" type="ego_car" route="E2W" depart="1888" departSpeed="10" departLane="best"/>
   <vehicle id="E2W_236" type="ego_car" route="E2W" depart="1894" departSpeed="10" departLane="best"/>
   <vehicle id="E2W_237" type="ego_car" route="E2W" depart="1923" departSpeed="10" departLane="best"/>
   <vehicle id="W2E_238" type="ego_car" route="W2E" depart="1976" departSpeed="10" departLane="best"/>
   <vehicle id="W2E_239" type="ego_car" route="W2E" depart="1985" departSpeed="10" departLane="best"/>
   <vehicle id="W2E_240" type="ego_car" route="W2E" depart="1994" departSpeed="10" departLane="best"/>
   <vehicle id="W2E_241" type="ego_car" route="W2E" depart="2003" departSpeed="10" departLane="best"/>
   <vehicle id="W2E_242" type="ego_car" route="W2E" depart="2007" departSpeed="10" departLane="best"/>
   <vehicle id="W2E_243" type="ego_car" route="W2E" depart="2009" departSpeed="10" departLane="best"/>
   <vehicle id="W2E_244" type="ego_car" route="W2E" depart="2031" departSpeed="10" departLane="best"/>
   <vehicle id="E2W_245" type="ego_car" route="E2W" depart="2055" departSpeed="10" departLane="best"/>
   <vehicle id="W2E_246" type="ego_car" route="W2E" depart="2067" departSpeed="10" departLane="best"/>
   <vehicle id="E2W_247" type="ego_car" route="E2W" depart="2090" departSpeed="10" departLane="best"/>
   <vehicle id="E2W_248" type="ego_car" route="E2W" depart="2180" departSpeed="10" departLane="best"/>
   <vehicle id="E2W_249" type="ego_car" route="E2W" depart="2205" departSpeed="10" departLane="best"/>
   <vehicle id="W2E_250" type="ego_car" route="W2E" depart="2229" departSpeed="10" departLane="best"/>
   <vehicle id="E2W_251" type="ego_car" route="E2W" depart="2301" departSpeed="10" departLane="best"/>
   <vehicle id="E2W_252" type="ego_car" route="E2W" depart="2333" departSpeed="10" departLane="best"/>
   <vehicle id="W2E_253" type="ego_car" route="W2E" depart="2563" departSpeed="10" departLane="best"/>
   <vehicle id="E2W_254" type="ego_car" route="E2W" depart="2591" departSpeed="10" departLane="best"/>
   <vehicle id="W2E_255" type="ego_car" route="W2E" depart="2593" departSpeed="10" departLane="best"/>
   <vehicle id="E2W_256" type="ego_car" route="E2W" depart="2599" departSpeed="10" departLane="best"/>
   <vehicle id="W2E_257" type="ego_car" route="W2E" depart="2930" departSpeed="10" departLane="best"/>
   <vehicle id="E2W_258" type="ego_car" route="E2W" depart="2953" departSpeed="10" departLane="best"/>
   <vehicle id="E2W_259" type="ego_car" route="E2W" depart="3075" departSpeed="10" departLane="best"/>
   <vehicle id="W2E_260" type="ego_car" route="W2E" depart="3236" departSpeed="10" departLane="best"/>
</routes>
