<?xml version="1.0" encoding="UTF-8"?>

<!-- generated on 2023-02-25 14:47:05 by Eclipse SUMO netedit Version 1.12.0
<configuration xmlns:xsi="http://www.w3.org/2001/XMLSchema-instance" xsi:noNamespaceSchemaLocation="http://sumo.dlr.de/xsd/netconvertConfiguration.xsd">

    <input>
        <sumo-net-file value="D:\sumo_workplace\DDPG2\rou_net\intersection.net.xml"/>
    </input>

    <output>
        <output-file value="D:\sumo_workplace\DDPG2\rou_net\intersection.net.xml"/>
    </output>

    <processing>
        <geometry.min-radius.fix.railways value="false"/>
        <geometry.max-grade.fix value="false"/>
        <offset.disable-normalization value="true"/>
        <lefthand value="false"/>
    </processing>

    <junctions>
        <no-turnarounds value="true"/>
        <junctions.corner-detail value="5"/>
        <junctions.limit-turn-speed value="5.5"/>
        <rectangular-lane-cut value="false"/>
    </junctions>

    <pedestrian>
        <walkingareas value="false"/>
    </pedestrian>

    <report>
        <aggregate-warnings value="5"/>
    </report>

</configuration>
-->

<net version="1.9" junctionCornerDetail="5" limitTurnSpeed="5.50" xmlns:xsi="http://www.w3.org/2001/XMLSchema-instance" xsi:noNamespaceSchemaLocation="http://sumo.dlr.de/xsd/net_file.xsd">

    <location netOffset="0.00,0.00" convBoundary="0.00,-150.00,1680.00,150.00" origBoundary="-10000000000.00,-10000000000.00,10000000000.00,10000000000.00" projParameter="!"/>

    <edge id=":i1_0" function="internal">
        <lane id=":i1_0_0" index="0" speed="20.00" length="14.40" shape="298.40,7.20 298.40,-7.20"/>
    </edge>
    <edge id=":i1_1" function="internal">
        <lane id=":i1_1_0" index="0" speed="20.00" length="14.40" shape="307.20,1.60 292.80,1.60"/>
    </edge>
    <edge id=":i1_2" function="internal">
        <lane id=":i1_2_0" index="0" speed="20.00" length="14.40" shape="301.60,-7.20 301.60,7.20"/>
    </edge>
    <edge id=":i1_3" function="internal">
        <lane id=":i1_3_0" index="0" speed="20.00" length="14.40" shape="292.80,-1.60 307.20,-1.60"/>
    </edge>
    <edge id=":i2_0" function="internal">
        <lane id=":i2_0_0" index="0" speed="20.00" length="14.40" shape="498.40,7.20 498.40,-7.20"/>
    </edge>
    <edge id=":i2_1" function="internal">
        <lane id=":i2_1_0" index="0" speed="20.00" length="14.40" shape="507.20,1.60 492.80,1.60"/>
    </edge>
    <edge id=":i2_2" function="internal">
        <lane id=":i2_2_0" index="0" speed="20.00" length="14.40" shape="501.60,-7.20 501.60,7.20"/>
    </edge>
    <edge id=":i2_3" function="internal">
        <lane id=":i2_3_0" index="0" speed="20.00" length="14.40" shape="492.80,-1.60 507.20,-1.60"/>
    </edge>
    <edge id=":i3_0" function="internal">
        <lane id=":i3_0_0" index="0" speed="20.00" length="14.40" shape="748.40,7.20 748.40,-7.20"/>
    </edge>
    <edge id=":i3_1" function="internal">
        <lane id=":i3_1_0" index="0" speed="20.00" length="14.40" shape="757.20,1.60 742.80,1.60"/>
    </edge>
    <edge id=":i3_2" function="internal">
        <lane id=":i3_2_0" index="0" speed="20.00" length="14.40" shape="751.60,-7.20 751.60,7.20"/>
    </edge>
    <edge id=":i3_3" function="internal">
        <lane id=":i3_3_0" index="0" speed="20.00" length="14.40" shape="742.80,-1.60 757.20,-1.60"/>
    </edge>
    <edge id=":i4_0" function="internal">
        <lane id=":i4_0_0" index="0" speed="20.00" length="14.40" shape="1098.40,7.20 1098.40,-7.20"/>
    </edge>
    <edge id=":i4_1" function="internal">
        <lane id=":i4_1_0" index="0" speed="20.00" length="14.40" shape="1107.20,1.60 1092.80,1.60"/>
    </edge>
    <edge id=":i4_2" function="internal">
        <lane id=":i4_2_0" index="0" speed="20.00" length="14.40" shape="1101.60,-7.20 1101.60,7.20"/>
    </edge>
    <edge id=":i4_3" function="internal">
        <lane id=":i4_3_0" index="0" speed="20.00" length="14.40" shape="1092.80,-1.60 1107.20,-1.60"/>
    </edge>
    <edge id=":i5_0" function="internal">
        <lane id=":i5_0_0" index="0" speed="20.00" length="14.40" shape="1378.40,7.20 1378.40,-7.20"/>
    </edge>
    <edge id=":i5_1" function="internal">
        <lane id=":i5_1_0" index="0" speed="20.00" length="14.40" shape="1387.20,1.60 1372.80,1.60"/>
    </edge>
    <edge id=":i5_2" function="internal">
        <lane id=":i5_2_0" index="0" speed="20.00" length="14.40" shape="1381.60,-7.20 1381.60,7.20"/>
    </edge>
    <edge id=":i5_3" function="internal">
        <lane id=":i5_3_0" index="0" speed="20.00" length="14.40" shape="1372.80,-1.60 1387.20,-1.60"/>
    </edge>

    <edge id="-E0" from="J0" to="i3" priority="-1">
        <lane id="-E0_0" index="0" speed="20.00" length="142.80" shape="751.60,-150.00 751.60,-7.20"/>
    </edge>
    <edge id="-E1" from="J1" to="i3" priority="-1">
        <lane id="-E1_0" index="0" speed="20.00" length="142.80" shape="748.40,150.00 748.40,7.20"/>
    </edge>
    <edge id="-E10" from="J11" to="i5" priority="-1">
        <lane id="-E10_0" index="0" speed="20.00" length="142.80" shape="1378.40,150.00 1378.40,7.20"/>
    </edge>
    <edge id="-E2" from="J5" to="i4" priority="-1">
        <lane id="-E2_0" index="0" speed="20.00" length="142.80" shape="1098.40,150.00 1098.40,7.20"/>
    </edge>
    <edge id="-E3" from="J6" to="i4" priority="-1">
        <lane id="-E3_0" index="0" speed="20.00" length="142.80" shape="1101.60,-150.00 1101.60,-7.20"/>
    </edge>
    <edge id="-E4" from="J3" to="i1" priority="-1">
        <lane id="-E4_0" index="0" speed="20.00" length="142.80" shape="301.60,-150.00 301.60,-7.20"/>
    </edge>
    <edge id="-E5" from="J4" to="i1" priority="-1">
        <lane id="-E5_0" index="0" speed="20.00" length="142.80" shape="298.40,150.00 298.40,7.20"/>
    </edge>
    <edge id="-E7" from="J10" to="i5" priority="-1">
        <lane id="-E7_0" index="0" speed="20.00" length="142.80" shape="1381.60,-150.00 1381.60,-7.20"/>
    </edge>
    <edge id="-E8" from="J7" to="i2" priority="-1">
        <lane id="-E8_0" index="0" speed="20.00" length="142.80" shape="501.60,-150.00 501.60,-7.20"/>
    </edge>
    <edge id="-E9" from="J8" to="i2" priority="-1">
        <lane id="-E9_0" index="0" speed="20.00" length="142.80" shape="498.40,150.00 498.40,7.20"/>
    </edge>
    <edge id="E0" from="i3" to="J0" priority="-1">
        <lane id="E0_0" index="0" speed="20.00" length="142.80" shape="748.40,-7.20 748.40,-150.00"/>
    </edge>
    <edge id="E1" from="i3" to="J1" priority="-1">
        <lane id="E1_0" index="0" speed="20.00" length="142.80" shape="751.60,7.20 751.60,150.00"/>
    </edge>
    <edge id="E10" from="i5" to="J11" priority="-1">
        <lane id="E10_0" index="0" speed="20.00" length="142.80" shape="1381.60,7.20 1381.60,150.00"/>
    </edge>
    <edge id="E2" from="i4" to="J5" priority="-1">
        <lane id="E2_0" index="0" speed="20.00" length="142.80" shape="1101.60,7.20 1101.60,150.00"/>
    </edge>
    <edge id="E3" from="i4" to="J6" priority="-1">
        <lane id="E3_0" index="0" speed="20.00" length="142.80" shape="1098.40,-7.20 1098.40,-150.00"/>
    </edge>
    <edge id="E4" from="i1" to="J3" priority="-1">
        <lane id="E4_0" index="0" speed="20.00" length="142.80" shape="298.40,-7.20 298.40,-150.00"/>
    </edge>
    <edge id="E5" from="i1" to="J4" priority="-1">
        <lane id="E5_0" index="0" speed="20.00" length="142.80" shape="301.60,7.20 301.60,150.00"/>
    </edge>
    <edge id="E7" from="i5" to="J10" priority="-1">
        <lane id="E7_0" index="0" speed="20.00" length="142.80" shape="1378.40,-7.20 1378.40,-150.00"/>
    </edge>
    <edge id="E8" from="i2" to="J7" priority="-1">
        <lane id="E8_0" index="0" speed="20.00" length="142.80" shape="498.40,-7.20 498.40,-150.00"/>
    </edge>
    <edge id="E9" from="i2" to="J8" priority="-1">
        <lane id="E9_0" index="0" speed="20.00" length="142.80" shape="501.60,7.20 501.60,150.00"/>
    </edge>
    <edge id="EW0" from="J12" to="i5" priority="-1">
        <lane id="EW0_0" index="0" speed="20.00" length="292.80" shape="1680.00,1.60 1387.20,1.60"/>
    </edge>
    <edge id="EW1" from="i5" to="i4" priority="-1">
        <lane id="EW1_0" index="0" speed="20.00" length="265.60" shape="1372.80,1.60 1107.20,1.60"/>
    </edge>
    <edge id="EW2" from="i4" to="i3" priority="-1">
        <lane id="EW2_0" index="0" speed="20.00" length="335.60" shape="1092.80,1.60 757.20,1.60"/>
    </edge>
    <edge id="EW3" from="i3" to="i2" priority="-1">
        <lane id="EW3_0" index="0" speed="20.00" length="235.60" shape="742.80,1.60 507.20,1.60"/>
    </edge>
    <edge id="EW4" from="i2" to="i1" priority="-1">
        <lane id="EW4_0" index="0" speed="20.00" length="185.60" shape="492.80,1.60 307.20,1.60"/>
    </edge>
    <edge id="EW5" from="i1" to="i0" priority="-1">
        <lane id="EW5_0" index="0" speed="20.00" length="292.80" shape="292.80,1.60 0.00,1.60"/>
    </edge>
    <edge id="WE0" from="i0" to="i1" priority="-1">
        <lane id="WE0_0" index="0" speed="20.00" length="292.80" shape="0.00,-1.60 292.80,-1.60"/>
    </edge>
    <edge id="WE1" from="i1" to="i2" priority="-1">
        <lane id="WE1_0" index="0" speed="20.00" length="185.60" shape="307.20,-1.60 492.80,-1.60"/>
    </edge>
    <edge id="WE2" from="i2" to="i3" priority="-1">
        <lane id="WE2_0" index="0" speed="20.00" length="235.60" shape="507.20,-1.60 742.80,-1.60"/>
    </edge>
    <edge id="WE3" from="i3" to="i4" priority="-1">
        <lane id="WE3_0" index="0" speed="20.00" length="335.60" shape="757.20,-1.60 1092.80,-1.60"/>
    </edge>
    <edge id="WE4" from="i4" to="i5" priority="-1">
        <lane id="WE4_0" index="0" speed="20.00" length="265.60" shape="1107.20,-1.60 1372.80,-1.60"/>
    </edge>
    <edge id="WE5" from="i5" to="J12" priority="-1">
        <lane id="WE5_0" index="0" speed="20.00" length="292.80" shape="1387.20,-1.60 1680.00,-1.60"/>
    </edge>

    <tlLogic id="tl1" type="static" programID="0" offset="0">
        <phase duration="35" state="rGrG" name="weg_nsr"/>
        <phase duration="5"  state="ryry" name="wey_nsr"/>
        <phase duration="35" state="GrGr" name="wer_nsg"/>
        <phase duration="5"  state="yryr" name="wer_nsy"/>
    </tlLogic>
    <tlLogic id="tl2" type="static" programID="0" offset="0">
        <phase duration="5"  state="yryr" name="wer_nsy"/>
        <phase duration="40" state="rGrG" name="weg_nsr"/>
        <phase duration="5"  state="ryry" name="wey_nsr"/>
        <phase duration="40" state="GrGr" name="wer_nsg"/> 
    </tlLogic>
    <tlLogic id="tl3" type="static" programID="0" offset="0">
        <phase duration="38" state="GrGr" name="wer_nsg"/>
        <phase duration="5"  state="yryr" name="wer_nsy"/>
        <phase duration="38" state="rGrG" name="weg_nsr"/>
        <phase duration="4"  state="ryry" name="wey_nsr"/>
    </tlLogic>
    <tlLogic id="tl4" type="static" programID="0" offset="0">
        <phase duration="5"  state="ryry" name="wey_nsr"/>
        <phase duration="42" state="GrGr" name="wer_nsg"/>
        <phase duration="5"  state="yryr" name="wer_nsy"/>
        <phase duration="42" state="rGrG" name="weg_nsr"/>
    </tlLogic>
    <tlLogic id="tl5" type="static" programID="0" offset="0">
        <phase duration="45" state="rGrG" name="weg_nsr"/>
        <phase duration="5"  state="ryry" name="wey_nsr"/>
        <phase duration="45" state="GrGr" name="wer_nsg"/>
        <phase duration="5"  state="yryr" name="wer_nsy"/>
    </tlLogic>

    <junction id="J0" type="dead_end" x="750.00" y="-150.00" incLanes="E0_0" intLanes="" shape="750.00,-150.00 746.80,-150.00 750.00,-150.00"/>
    <junction id="J1" type="dead_end" x="750.00" y="150.00" incLanes="E1_0" intLanes="" shape="750.00,150.00 753.20,150.00 750.00,150.00"/>
    <junction id="J10" type="dead_end" x="1380.00" y="-150.00" incLanes="E7_0" intLanes="" shape="1380.00,-150.00 1376.80,-150.00 1380.00,-150.00"/>
    <junction id="J11" type="dead_end" x="1380.00" y="150.00" incLanes="E10_0" intLanes="" shape="1380.00,150.00 1383.20,150.00 1380.00,150.00"/>
    <junction id="J12" type="dead_end" x="1680.00" y="0.00" incLanes="WE5_0" intLanes="" shape="1680.00,0.00 1680.00,-3.20 1680.00,0.00"/>
    <junction id="J3" type="dead_end" x="300.00" y="-150.00" incLanes="E4_0" intLanes="" shape="300.00,-150.00 296.80,-150.00 300.00,-150.00"/>
    <junction id="J4" type="dead_end" x="300.00" y="150.00" incLanes="E5_0" intLanes="" shape="300.00,150.00 303.20,150.00 300.00,150.00"/>
    <junction id="J5" type="dead_end" x="1100.00" y="150.00" incLanes="E2_0" intLanes="" shape="1100.00,150.00 1103.20,150.00 1100.00,150.00"/>
    <junction id="J6" type="dead_end" x="1100.00" y="-150.00" incLanes="E3_0" intLanes="" shape="1100.00,-150.00 1096.80,-150.00 1100.00,-150.00"/>
    <junction id="J7" type="dead_end" x="500.00" y="-150.00" incLanes="E8_0" intLanes="" shape="500.00,-150.00 496.80,-150.00 500.00,-150.00"/>
    <junction id="J8" type="dead_end" x="500.00" y="150.00" incLanes="E9_0" intLanes="" shape="500.00,150.00 503.20,150.00 500.00,150.00"/>
    <junction id="i0" type="dead_end" x="0.00" y="0.00" incLanes="EW5_0" intLanes="" shape="0.00,0.00 0.00,3.20 0.00,0.00"/>
    <junction id="i1" type="traffic_light" x="300.00" y="0.00" incLanes="-E5_0 EW4_0 -E4_0 WE0_0" intLanes=":i1_0_0 :i1_1_0 :i1_2_0 :i1_3_0" shape="296.80,7.20 303.20,7.20 303.64,4.98 304.20,4.20 304.98,3.64 305.98,3.31 307.20,3.20 307.20,-3.20 304.98,-3.64 304.20,-4.20 303.64,-4.98 303.31,-5.98 303.20,-7.20 296.80,-7.20 296.36,-4.98 295.80,-4.20 295.02,-3.64 294.02,-3.31 292.80,-3.20 292.80,3.20 295.02,3.64 295.80,4.20 296.36,4.98 296.69,5.98">
        <request index="0" response="0000" foes="1010" cont="0"/>
        <request index="1" response="0101" foes="0101" cont="0"/>
        <request index="2" response="0000" foes="1010" cont="0"/>
        <request index="3" response="0101" foes="0101" cont="0"/>
    </junction>
    <junction id="i2" type="traffic_light" x="500.00" y="0.00" incLanes="-E9_0 EW3_0 -E8_0 WE1_0" intLanes=":i2_0_0 :i2_1_0 :i2_2_0 :i2_3_0" shape="496.80,7.20 503.20,7.20 503.64,4.98 504.20,4.20 504.98,3.64 505.98,3.31 507.20,3.20 507.20,-3.20 504.98,-3.64 504.20,-4.20 503.64,-4.98 503.31,-5.98 503.20,-7.20 496.80,-7.20 496.36,-4.98 495.80,-4.20 495.02,-3.64 494.02,-3.31 492.80,-3.20 492.80,3.20 495.02,3.64 495.80,4.20 496.36,4.98 496.69,5.98">
        <request index="0" response="0000" foes="1010" cont="0"/>
        <request index="1" response="0101" foes="0101" cont="0"/>
        <request index="2" response="0000" foes="1010" cont="0"/>
        <request index="3" response="0101" foes="0101" cont="0"/>
    </junction>
    <junction id="i3" type="traffic_light" x="750.00" y="0.00" incLanes="-E1_0 EW2_0 -E0_0 WE2_0" intLanes=":i3_0_0 :i3_1_0 :i3_2_0 :i3_3_0" shape="746.80,7.20 753.20,7.20 753.64,4.98 754.20,4.20 754.98,3.64 755.98,3.31 757.20,3.20 757.20,-3.20 754.98,-3.64 754.20,-4.20 753.64,-4.98 753.31,-5.98 753.20,-7.20 746.80,-7.20 746.36,-4.98 745.80,-4.20 745.02,-3.64 744.02,-3.31 742.80,-3.20 742.80,3.20 745.02,3.64 745.80,4.20 746.36,4.98 746.69,5.98">
        <request index="0" response="0000" foes="1010" cont="0"/>
        <request index="1" response="0101" foes="0101" cont="0"/>
        <request index="2" response="0000" foes="1010" cont="0"/>
        <request index="3" response="0101" foes="0101" cont="0"/>
    </junction>
    <junction id="i4" type="traffic_light" x="1100.00" y="0.00" incLanes="-E2_0 EW1_0 -E3_0 WE3_0" intLanes=":i4_0_0 :i4_1_0 :i4_2_0 :i4_3_0" shape="1096.80,7.20 1103.20,7.20 1103.64,4.98 1104.20,4.20 1104.98,3.64 1105.98,3.31 1107.20,3.20 1107.20,-3.20 1104.98,-3.64 1104.20,-4.20 1103.64,-4.98 1103.31,-5.98 1103.20,-7.20 1096.80,-7.20 1096.36,-4.98 1095.80,-4.20 1095.02,-3.64 1094.02,-3.31 1092.80,-3.20 1092.80,3.20 1095.02,3.64 1095.80,4.20 1096.36,4.98 1096.69,5.98">
        <request index="0" response="0000" foes="1010" cont="0"/>
        <request index="1" response="0101" foes="0101" cont="0"/>
        <request index="2" response="0000" foes="1010" cont="0"/>
        <request index="3" response="0101" foes="0101" cont="0"/>
    </junction>
    <junction id="i5" type="traffic_light" x="1380.00" y="0.00" incLanes="-E10_0 EW0_0 -E7_0 WE4_0" intLanes=":i5_0_0 :i5_1_0 :i5_2_0 :i5_3_0" shape="1376.80,7.20 1383.20,7.20 1383.64,4.98 1384.20,4.20 1384.98,3.64 1385.98,3.31 1387.20,3.20 1387.20,-3.20 1384.98,-3.64 1384.20,-4.20 1383.64,-4.98 1383.31,-5.98 1383.20,-7.20 1376.80,-7.20 1376.36,-4.98 1375.80,-4.20 1375.02,-3.64 1374.02,-3.31 1372.80,-3.20 1372.80,3.20 1375.02,3.64 1375.80,4.20 1376.36,4.98 1376.69,5.98">
        <request index="0" response="0000" foes="1010" cont="0"/>
        <request index="1" response="0101" foes="0101" cont="0"/>
        <request index="2" response="0000" foes="1010" cont="0"/>
        <request index="3" response="0101" foes="0101" cont="0"/>
    </junction>

    <connection from="-E0" to="E1" fromLane="0" toLane="0" via=":i3_2_0" tl="tl3" linkIndex="2" dir="s" state="O"/>
    <connection from="-E1" to="E0" fromLane="0" toLane="0" via=":i3_0_0" tl="tl3" linkIndex="0" dir="s" state="O"/>
    <connection from="-E10" to="E7" fromLane="0" toLane="0" via=":i5_0_0" tl="tl5" linkIndex="0" dir="s" state="O"/>
    <connection from="-E2" to="E3" fromLane="0" toLane="0" via=":i4_0_0" tl="tl4" linkIndex="0" dir="s" state="O"/>
    <connection from="-E3" to="E2" fromLane="0" toLane="0" via=":i4_2_0" tl="tl4" linkIndex="2" dir="s" state="O"/>
    <connection from="-E4" to="E5" fromLane="0" toLane="0" via=":i1_2_0" tl="tl1" linkIndex="2" dir="s" state="O"/>
    <connection from="-E5" to="E4" fromLane="0" toLane="0" via=":i1_0_0" tl="tl1" linkIndex="0" dir="s" state="O"/>
    <connection from="-E7" to="E10" fromLane="0" toLane="0" via=":i5_2_0" tl="tl5" linkIndex="2" dir="s" state="O"/>
    <connection from="-E8" to="E9" fromLane="0" toLane="0" via=":i2_2_0" tl="tl2" linkIndex="2" dir="s" state="O"/>
    <connection from="-E9" to="E8" fromLane="0" toLane="0" via=":i2_0_0" tl="tl2" linkIndex="0" dir="s" state="O"/>
    <connection from="EW0" to="EW1" fromLane="0" toLane="0" via=":i5_1_0" tl="tl5" linkIndex="1" dir="s" state="o"/>
    <connection from="EW1" to="EW2" fromLane="0" toLane="0" via=":i4_1_0" tl="tl4" linkIndex="1" dir="s" state="o"/>
    <connection from="EW2" to="EW3" fromLane="0" toLane="0" via=":i3_1_0" tl="tl3" linkIndex="1" dir="s" state="o"/>
    <connection from="EW3" to="EW4" fromLane="0" toLane="0" via=":i2_1_0" tl="tl2" linkIndex="1" dir="s" state="o"/>
    <connection from="EW4" to="EW5" fromLane="0" toLane="0" via=":i1_1_0" tl="tl1" linkIndex="1" dir="s" state="o"/>
    <connection from="WE0" to="WE1" fromLane="0" toLane="0" via=":i1_3_0" tl="tl1" linkIndex="3" dir="s" state="o"/>
    <connection from="WE1" to="WE2" fromLane="0" toLane="0" via=":i2_3_0" tl="tl2" linkIndex="3" dir="s" state="o"/>
    <connection from="WE2" to="WE3" fromLane="0" toLane="0" via=":i3_3_0" tl="tl3" linkIndex="3" dir="s" state="o"/>
    <connection from="WE3" to="WE4" fromLane="0" toLane="0" via=":i4_3_0" tl="tl4" linkIndex="3" dir="s" state="o"/>
    <connection from="WE4" to="WE5" fromLane="0" toLane="0" via=":i5_3_0" tl="tl5" linkIndex="3" dir="s" state="o"/>

    <connection from=":i1_0" to="E4" fromLane="0" toLane="0" dir="s" state="M"/>
    <connection from=":i1_1" to="EW5" fromLane="0" toLane="0" dir="s" state="M"/>
    <connection from=":i1_2" to="E5" fromLane="0" toLane="0" dir="s" state="M"/>
    <connection from=":i1_3" to="WE1" fromLane="0" toLane="0" dir="s" state="M"/>
    <connection from=":i2_0" to="E8" fromLane="0" toLane="0" dir="s" state="M"/>
    <connection from=":i2_1" to="EW4" fromLane="0" toLane="0" dir="s" state="M"/>
    <connection from=":i2_2" to="E9" fromLane="0" toLane="0" dir="s" state="M"/>
    <connection from=":i2_3" to="WE2" fromLane="0" toLane="0" dir="s" state="M"/>
    <connection from=":i3_0" to="E0" fromLane="0" toLane="0" dir="s" state="M"/>
    <connection from=":i3_1" to="EW3" fromLane="0" toLane="0" dir="s" state="M"/>
    <connection from=":i3_2" to="E1" fromLane="0" toLane="0" dir="s" state="M"/>
    <connection from=":i3_3" to="WE3" fromLane="0" toLane="0" dir="s" state="M"/>
    <connection from=":i4_0" to="E3" fromLane="0" toLane="0" dir="s" state="M"/>
    <connection from=":i4_1" to="EW2" fromLane="0" toLane="0" dir="s" state="M"/>
    <connection from=":i4_2" to="E2" fromLane="0" toLane="0" dir="s" state="M"/>
    <connection from=":i4_3" to="WE4" fromLane="0" toLane="0" dir="s" state="M"/>
    <connection from=":i5_0" to="E7" fromLane="0" toLane="0" dir="s" state="M"/>
    <connection from=":i5_1" to="EW1" fromLane="0" toLane="0" dir="s" state="M"/>
    <connection from=":i5_2" to="E10" fromLane="0" toLane="0" dir="s" state="M"/>
    <connection from=":i5_3" to="WE5" fromLane="0" toLane="0" dir="s" state="M"/>

</net>
