<routes>

        <vType id = 'ego_car' vclass="evehicle" emissionClass="Energy/unknown" tau="1" accel="3.0" decel="3.0" color="#00FFFF" sigma="0.2" length="4.90" minGap="1" maxSpeed="20" guiShape="passenger">
            <param key="has.battery.device" value="true"/>
            <param key="maximumBatteryCapacity" value="38000"/> 
            <param key="maximumPower" value="200000"/>
            <param key="vehicleMass" value="1830"/>
            <param key="frontSurfaceArea" value="2.6"/>
            <param key="airDragCoefficient" value="0.35"/>
            <param key="internalMomentOfInertia" value="0.01"/>
            <param key="radialDragCoefficient" value="0.1"/>
            <param key="rollDragCoefficient" value="0.01"/>
            <param key="constantPowerIntake" value="100"/>
            <param key="propulsionEfficiency" value="0.9"/>
            <param key="recuperationEfficiency" value="0.9"/>
            <param key="stoppingThreshold" value="0.1"/>
        </vType>
        
        <route id="W2E" edges="WE0 WE1 WE2 WE3 WE4 WE5"/>
        <route id="E2W" edges="EW0 EW1 EW2 EW3 EW4 EW5"/>
   <vehicle id="W2E_1" type="ego_car" route="W2E" depart="79" departSpeed="10" departLane="best"/>
   <vehicle id="E2W_2" type="ego_car" route="E2W" depart="83" departSpeed="10" departLane="best"/>
   <vehicle id="E2W_3" type="ego_car" route="E2W" depart="106" departSpeed="10" departLane="best"/>
   <vehicle id="W2E_4" type="ego_car" route="W2E" depart="107" departSpeed="10" departLane="best"/>
   <vehicle id="E2W_5" type="ego_car" route="E2W" depart="111" departSpeed="10" departLane="best"/>
   <vehicle id="E2W_6" type="ego_car" route="E2W" depart="115" departSpeed="10" departLane="best"/>
   <vehicle id="E2W_7" type="ego_car" route="E2W" depart="127" departSpeed="10" departLane="best"/>
   <vehicle id="W2E_8" type="ego_car" route="W2E" depart="139" departSpeed="10" departLane="best"/>
   <vehicle id="W2E_9" type="ego_car" route="W2E" depart="154" departSpeed="10" departLane="best"/>
   <vehicle id="W2E_10" type="ego_car" route="W2E" depart="162" departSpeed="10" departLane="best"/>
   <vehicle id="E2W_11" type="ego_car" route="E2W" depart="200" departSpeed="10" departLane="best"/>
   <vehicle id="E2W_12" type="ego_car" route="E2W" depart="209" departSpeed="10" departLane="best"/>
   <vehicle id="W2E_13" type="ego_car" route="W2E" depart="211" departSpeed="10" departLane="best"/>
   <vehicle id="W2E_14" type="ego_car" route="W2E" depart="212" departSpeed="10" departLane="best"/>
   <vehicle id="W2E_15" type="ego_car" route="W2E" depart="230" departSpeed="10" departLane="best"/>
   <vehicle id="E2W_16" type="ego_car" route="E2W" depart="250" departSpeed="10" departLane="best"/>
   <vehicle id="W2E_17" type="ego_car" route="W2E" depart="293" departSpeed="10" departLane="best"/>
   <vehicle id="E2W_18" type="ego_car" route="E2W" depart="303" departSpeed="10" departLane="best"/>
   <vehicle id="E2W_19" type="ego_car" route="E2W" depart="319" departSpeed="10" departLane="best"/>
   <vehicle id="E2W_20" type="ego_car" route="E2W" depart="332" departSpeed="10" departLane="best"/>
   <vehicle id="W2E_21" type="ego_car" route="W2E" depart="338" departSpeed="10" departLane="best"/>
   <vehicle id="E2W_22" type="ego_car" route="E2W" depart="343" departSpeed="10" departLane="best"/>
   <vehicle id="E2W_23" type="ego_car" route="E2W" depart="345" departSpeed="10" departLane="best"/>
   <vehicle id="E2W_24" type="ego_car" route="E2W" depart="349" departSpeed="10" departLane="best"/>
   <vehicle id="E2W_25" type="ego_car" route="E2W" depart="352" departSpeed="10" departLane="best"/>
   <vehicle id="W2E_26" type="ego_car" route="W2E" depart="361" departSpeed="10" departLane="best"/>
   <vehicle id="W2E_27" type="ego_car" route="W2E" depart="364" departSpeed="10" departLane="best"/>
   <vehicle id="W2E_28" type="ego_car" route="W2E" depart="374" departSpeed="10" departLane="best"/>
   <vehicle id="E2W_29" type="ego_car" route="E2W" depart="383" departSpeed="10" departLane="best"/>
   <vehicle id="E2W_30" type="ego_car" route="E2W" depart="387" departSpeed="10" departLane="best"/>
   <vehicle id="E2W_31" type="ego_car" route="E2W" depart="388" departSpeed="10" departLane="best"/>
   <vehicle id="E2W_32" type="ego_car" route="E2W" depart="413" departSpeed="10" departLane="best"/>
   <vehicle id="E2W_33" type="ego_car" route="E2W" depart="424" departSpeed="10" departLane="best"/>
   <vehicle id="E2W_34" type="ego_car" route="E2W" depart="431" departSpeed="10" departLane="best"/>
   <vehicle id="W2E_35" type="ego_car" route="W2E" depart="438" departSpeed="10" departLane="best"/>
   <vehicle id="W2E_36" type="ego_car" route="W2E" depart="448" departSpeed="10" departLane="best"/>
   <vehicle id="W2E_37" type="ego_car" route="W2E" depart="451" departSpeed="10" departLane="best"/>
   <vehicle id="W2E_38" type="ego_car" route="W2E" depart="457" departSpeed="10" departLane="best"/>
   <vehicle id="E2W_39" type="ego_car" route="E2W" depart="457" departSpeed="10" departLane="best"/>
   <vehicle id="W2E_40" type="ego_car" route="W2E" depart="458" departSpeed="10" departLane="best"/>
   <vehicle id="W2E_41" type="ego_car" route="W2E" depart="462" departSpeed="10" departLane="best"/>
   <vehicle id="E2W_42" type="ego_car" route="E2W" depart="462" departSpeed="10" departLane="best"/>
   <vehicle id="W2E_43" type="ego_car" route="W2E" depart="464" departSpeed="10" departLane="best"/>
   <vehicle id="E2W_44" type="ego_car" route="E2W" depart="474" departSpeed="10" departLane="best"/>
   <vehicle id="E2W_45" type="ego_car" route="E2W" depart="484" departSpeed="10" departLane="best"/>
   <vehicle id="W2E_46" type="ego_car" route="W2E" depart="490" departSpeed="10" departLane="best"/>
   <vehicle id="E2W_47" type="ego_car" route="E2W" depart="495" departSpeed="10" departLane="best"/>
   <vehicle id="W2E_48" type="ego_car" route="W2E" depart="521" departSpeed="10" departLane="best"/>
   <vehicle id="W2E_49" type="ego_car" route="W2E" depart="530" departSpeed="10" departLane="best"/>
   <vehicle id="E2W_50" type="ego_car" route="E2W" depart="545" departSpeed="10" departLane="best"/>
   <vehicle id="E2W_51" type="ego_car" route="E2W" depart="552" departSpeed="10" departLane="best"/>
   <vehicle id="W2E_52" type="ego_car" route="W2E" depart="553" departSpeed="10" departLane="best"/>
   <vehicle id="E2W_53" type="ego_car" route="E2W" depart="560" departSpeed="10" departLane="best"/>
   <vehicle id="E2W_54" type="ego_car" route="E2W" depart="567" departSpeed="10" departLane="best"/>
   <vehicle id="E2W_55" type="ego_car" route="E2W" depart="567" departSpeed="10" departLane="best"/>
   <vehicle id="W2E_56" type="ego_car" route="W2E" depart="568" departSpeed="10" departLane="best"/>
   <vehicle id="E2W_57" type="ego_car" route="E2W" depart="570" departSpeed="10" departLane="best"/>
   <vehicle id="E2W_58" type="ego_car" route="E2W" depart="580" departSpeed="10" departLane="best"/>
   <vehicle id="E2W_59" type="ego_car" route="E2W" depart="581" departSpeed="10" departLane="best"/>
   <vehicle id="W2E_60" type="ego_car" route="W2E" depart="594" departSpeed="10" departLane="best"/>
   <vehicle id="W2E_61" type="ego_car" route="W2E" depart="598" departSpeed="10" departLane="best"/>
   <vehicle id="E2W_62" type="ego_car" route="E2W" depart="607" departSpeed="10" departLane="best"/>
   <vehicle id="W2E_63" type="ego_car" route="W2E" depart="610" departSpeed="10" departLane="best"/>
   <vehicle id="W2E_64" type="ego_car" route="W2E" depart="616" departSpeed="10" departLane="best"/>
   <vehicle id="W2E_65" type="ego_car" route="W2E" depart="620" departSpeed="10" departLane="best"/>
   <vehicle id="W2E_66" type="ego_car" route="W2E" depart="624" departSpeed="10" departLane="best"/>
   <vehicle id="W2E_67" type="ego_car" route="W2E" depart="636" departSpeed="10" departLane="best"/>
   <vehicle id="W2E_68" type="ego_car" route="W2E" depart="648" departSpeed="10" departLane="best"/>
   <vehicle id="E2W_69" type="ego_car" route="E2W" depart="651" departSpeed="10" departLane="best"/>
   <vehicle id="W2E_70" type="ego_car" route="W2E" depart="662" departSpeed="10" departLane="best"/>
   <vehicle id="E2W_71" type="ego_car" route="E2W" depart="662" departSpeed="10" departLane="best"/>
   <vehicle id="W2E_72" type="ego_car" route="W2E" depart="669" departSpeed="10" departLane="best"/>
   <vehicle id="E2W_73" type="ego_car" route="E2W" depart="679" departSpeed="10" departLane="best"/>
   <vehicle id="W2E_74" type="ego_car" route="W2E" depart="683" departSpeed="10" departLane="best"/>
   <vehicle id="E2W_75" type="ego_car" route="E2W" depart="686" departSpeed="10" departLane="best"/>
   <vehicle id="E2W_76" type="ego_car" route="E2W" depart="686" departSpeed="10" departLane="best"/>
   <vehicle id="W2E_77" type="ego_car" route="W2E" depart="690" departSpeed="10" departLane="best"/>
   <vehicle id="W2E_78" type="ego_car" route="W2E" depart="696" departSpeed="10" departLane="best"/>
   <vehicle id="W2E_79" type="ego_car" route="W2E" depart="696" departSpeed="10" departLane="best"/>
   <vehicle id="E2W_80" type="ego_car" route="E2W" depart="696" departSpeed="10" departLane="best"/>
   <vehicle id="E2W_81" type="ego_car" route="E2W" depart="716" departSpeed="10" departLane="best"/>
   <vehicle id="E2W_82" type="ego_car" route="E2W" depart="720" departSpeed="10" departLane="best"/>
   <vehicle id="E2W_83" type="ego_car" route="E2W" depart="728" departSpeed="10" departLane="best"/>
   <vehicle id="W2E_84" type="ego_car" route="W2E" depart="731" departSpeed="10" departLane="best"/>
   <vehicle id="W2E_85" type="ego_car" route="W2E" depart="736" departSpeed="10" departLane="best"/>
   <vehicle id="W2E_86" type="ego_car" route="W2E" depart="743" departSpeed="10" departLane="best"/>
   <vehicle id="W2E_87" type="ego_car" route="W2E" depart="760" departSpeed="10" departLane="best"/>
   <vehicle id="E2W_88" type="ego_car" route="E2W" depart="763" departSpeed="10" departLane="best"/>
   <vehicle id="E2W_89" type="ego_car" route="E2W" depart="767" departSpeed="10" departLane="best"/>
   <vehicle id="W2E_90" type="ego_car" route="W2E" depart="776" departSpeed="10" departLane="best"/>
   <vehicle id="E2W_91" type="ego_car" route="E2W" depart="778" departSpeed="10" departLane="best"/>
   <vehicle id="W2E_92" type="ego_car" route="W2E" depart="782" departSpeed="10" departLane="best"/>
   <vehicle id="W2E_93" type="ego_car" route="W2E" depart="786" departSpeed="10" departLane="best"/>
   <vehicle id="E2W_94" type="ego_car" route="E2W" depart="792" departSpeed="10" departLane="best"/>
   <vehicle id="W2E_95" type="ego_car" route="W2E" depart="796" departSpeed="10" departLane="best"/>
   <vehicle id="E2W_96" type="ego_car" route="E2W" depart="807" departSpeed="10" departLane="best"/>
   <vehicle id="W2E_97" type="ego_car" route="W2E" depart="813" departSpeed="10" departLane="best"/>
   <vehicle id="E2W_98" type="ego_car" route="E2W" depart="814" departSpeed="10" departLane="best"/>
   <vehicle id="E2W_99" type="ego_car" route="E2W" depart="815" departSpeed="10" departLane="best"/>
   <vehicle id="W2E_100" type="ego_car" route="W2E" depart="828" departSpeed="10" departLane="best"/>
   <vehicle id="E2W_101" type="ego_car" route="E2W" depart="840" departSpeed="10" departLane="best"/>
   <vehicle id="E2W_102" type="ego_car" route="E2W" depart="844" departSpeed="10" departLane="best"/>
   <vehicle id="W2E_103" type="ego_car" route="W2E" depart="845" departSpeed="10" departLane="best"/>
   <vehicle id="E2W_104" type="ego_car" route="E2W" depart="845" departSpeed="10" departLane="best"/>
   <vehicle id="W2E_105" type="ego_car" route="W2E" depart="851" departSpeed="10" departLane="best"/>
   <vehicle id="E2W_106" type="ego_car" route="E2W" depart="852" departSpeed="10" departLane="best"/>
   <vehicle id="W2E_107" type="ego_car" route="W2E" depart="857" departSpeed="10" departLane="best"/>
   <vehicle id="W2E_108" type="ego_car" route="W2E" depart="862" departSpeed="10" departLane="best"/>
   <vehicle id="E2W_109" type="ego_car" route="E2W" depart="868" departSpeed="10" departLane="best"/>
   <vehicle id="W2E_110" type="ego_car" route="W2E" depart="877" departSpeed="10" departLane="best"/>
   <vehicle id="E2W_111" type="ego_car" route="E2W" depart="880" departSpeed="10" departLane="best"/>
   <vehicle id="E2W_112" type="ego_car" route="E2W" depart="880" departSpeed="10" departLane="best"/>
   <vehicle id="W2E_113" type="ego_car" route="W2E" depart="890" departSpeed="10" departLane="best"/>
   <vehicle id="E2W_114" type="ego_car" route="E2W" depart="899" departSpeed="10" departLane="best"/>
   <vehicle id="E2W_115" type="ego_car" route="E2W" depart="900" departSpeed="10" departLane="best"/>
   <vehicle id="E2W_116" type="ego_car" route="E2W" depart="900" departSpeed="10" departLane="best"/>
   <vehicle id="W2E_117" type="ego_car" route="W2E" depart="901" departSpeed="10" departLane="best"/>
   <vehicle id="E2W_118" type="ego_car" route="E2W" depart="904" departSpeed="10" departLane="best"/>
   <vehicle id="W2E_119" type="ego_car" route="W2E" depart="905" departSpeed="10" departLane="best"/>
   <vehicle id="W2E_120" type="ego_car" route="W2E" depart="907" departSpeed="10" departLane="best"/>
   <vehicle id="W2E_121" type="ego_car" route="W2E" depart="908" departSpeed="10" departLane="best"/>
   <vehicle id="W2E_122" type="ego_car" route="W2E" depart="912" departSpeed="10" departLane="best"/>
   <vehicle id="E2W_123" type="ego_car" route="E2W" depart="914" departSpeed="10" departLane="best"/>
   <vehicle id="E2W_124" type="ego_car" route="E2W" depart="922" departSpeed="10" departLane="best"/>
   <vehicle id="W2E_125" type="ego_car" route="W2E" depart="927" departSpeed="10" departLane="best"/>
   <vehicle id="W2E_126" type="ego_car" route="W2E" depart="931" departSpeed="10" departLane="best"/>
   <vehicle id="W2E_127" type="ego_car" route="W2E" depart="934" departSpeed="10" departLane="best"/>
   <vehicle id="W2E_128" type="ego_car" route="W2E" depart="936" departSpeed="10" departLane="best"/>
   <vehicle id="E2W_129" type="ego_car" route="E2W" depart="942" departSpeed="10" departLane="best"/>
   <vehicle id="W2E_130" type="ego_car" route="W2E" depart="945" departSpeed="10" departLane="best"/>
   <vehicle id="E2W_131" type="ego_car" route="E2W" depart="950" departSpeed="10" departLane="best"/>
   <vehicle id="E2W_132" type="ego_car" route="E2W" depart="950" departSpeed="10" departLane="best"/>
   <vehicle id="W2E_133" type="ego_car" route="W2E" depart="953" departSpeed="10" departLane="best"/>
   <vehicle id="W2E_134" type="ego_car" route="W2E" depart="956" departSpeed="10" departLane="best"/>
   <vehicle id="W2E_135" type="ego_car" route="W2E" depart="956" departSpeed="10" departLane="best"/>
   <vehicle id="W2E_136" type="ego_car" route="W2E" depart="962" departSpeed="10" departLane="best"/>
   <vehicle id="W2E_137" type="ego_car" route="W2E" depart="976" departSpeed="10" departLane="best"/>
   <vehicle id="E2W_138" type="ego_car" route="E2W" depart="983" departSpeed="10" departLane="best"/>
   <vehicle id="E2W_139" type="ego_car" route="E2W" depart="990" departSpeed="10" departLane="best"/>
   <vehicle id="E2W_140" type="ego_car" route="E2W" depart="994" departSpeed="10" departLane="best"/>
   <vehicle id="E2W_141" type="ego_car" route="E2W" depart="1000" departSpeed="10" departLane="best"/>
   <vehicle id="W2E_142" type="ego_car" route="W2E" depart="1001" departSpeed="10" departLane="best"/>
   <vehicle id="E2W_143" type="ego_car" route="E2W" depart="1015" departSpeed="10" departLane="best"/>
   <vehicle id="E2W_144" type="ego_car" route="E2W" depart="1019" departSpeed="10" departLane="best"/>
   <vehicle id="W2E_145" type="ego_car" route="W2E" depart="1022" departSpeed="10" departLane="best"/>
   <vehicle id="E2W_146" type="ego_car" route="E2W" depart="1022" departSpeed="10" departLane="best"/>
   <vehicle id="W2E_147" type="ego_car" route="W2E" depart="1037" departSpeed="10" departLane="best"/>
   <vehicle id="W2E_148" type="ego_car" route="W2E" depart="1049" departSpeed="10" departLane="best"/>
   <vehicle id="E2W_149" type="ego_car" route="E2W" depart="1055" departSpeed="10" departLane="best"/>
   <vehicle id="W2E_150" type="ego_car" route="W2E" depart="1064" departSpeed="10" departLane="best"/>
   <vehicle id="W2E_151" type="ego_car" route="W2E" depart="1066" departSpeed="10" departLane="best"/>
   <vehicle id="W2E_152" type="ego_car" route="W2E" depart="1066" departSpeed="10" departLane="best"/>
   <vehicle id="E2W_153" type="ego_car" route="E2W" depart="1071" departSpeed="10" departLane="best"/>
   <vehicle id="W2E_154" type="ego_car" route="W2E" depart="1076" departSpeed="10" departLane="best"/>
   <vehicle id="W2E_155" type="ego_car" route="W2E" depart="1079" departSpeed="10" departLane="best"/>
   <vehicle id="E2W_156" type="ego_car" route="E2W" depart="1083" departSpeed="10" departLane="best"/>
   <vehicle id="W2E_157" type="ego_car" route="W2E" depart="1110" departSpeed="10" departLane="best"/>
   <vehicle id="W2E_158" type="ego_car" route="W2E" depart="1111" departSpeed="10" departLane="best"/>
   <vehicle id="E2W_159" type="ego_car" route="E2W" depart="1116" departSpeed="10" departLane="best"/>
   <vehicle id="W2E_160" type="ego_car" route="W2E" depart="1120" departSpeed="10" departLane="best"/>
   <vehicle id="E2W_161" type="ego_car" route="E2W" depart="1141" departSpeed="10" departLane="best"/>
   <vehicle id="W2E_162" type="ego_car" route="W2E" depart="1161" departSpeed="10" departLane="best"/>
   <vehicle id="E2W_163" type="ego_car" route="E2W" depart="1165" departSpeed="10" departLane="best"/>
   <vehicle id="W2E_164" type="ego_car" route="W2E" depart="1167" departSpeed="10" departLane="best"/>
   <vehicle id="W2E_165" type="ego_car" route="W2E" depart="1169" departSpeed="10" departLane="best"/>
   <vehicle id="E2W_166" type="ego_car" route="E2W" depart="1172" departSpeed="10" departLane="best"/>
   <vehicle id="W2E_167" type="ego_car" route="W2E" depart="1173" departSpeed="10" departLane="best"/>
   <vehicle id="E2W_168" type="ego_car" route="E2W" depart="1181" departSpeed="10" departLane="best"/>
   <vehicle id="W2E_169" type="ego_car" route="W2E" depart="1183" departSpeed="10" departLane="best"/>
   <vehicle id="E2W_170" type="ego_car" route="E2W" depart="1198" departSpeed="10" departLane="best"/>
   <vehicle id="W2E_171" type="ego_car" route="W2E" depart="1210" departSpeed="10" departLane="best"/>
   <vehicle id="E2W_172" type="ego_car" route="E2W" depart="1211" departSpeed="10" departLane="best"/>
   <vehicle id="E2W_173" type="ego_car" route="E2W" depart="1219" departSpeed="10" departLane="best"/>
   <vehicle id="E2W_174" type="ego_car" route="E2W" depart="1222" departSpeed="10" departLane="best"/>
   <vehicle id="E2W_175" type="ego_car" route="E2W" depart="1239" departSpeed="10" departLane="best"/>
   <vehicle id="W2E_176" type="ego_car" route="W2E" depart="1264" departSpeed="10" departLane="best"/>
   <vehicle id="E2W_177" type="ego_car" route="E2W" depart="1267" departSpeed="10" departLane="best"/>
   <vehicle id="W2E_178" type="ego_car" route="W2E" depart="1272" departSpeed="10" departLane="best"/>
   <vehicle id="W2E_179" type="ego_car" route="W2E" depart="1275" departSpeed="10" departLane="best"/>
   <vehicle id="W2E_180" type="ego_car" route="W2E" depart="1275" departSpeed="10" departLane="best"/>
   <vehicle id="W2E_181" type="ego_car" route="W2E" depart="1283" departSpeed="10" departLane="best"/>
   <vehicle id="E2W_182" type="ego_car" route="E2W" depart="1298" departSpeed="10" departLane="best"/>
   <vehicle id="E2W_183" type="ego_car" route="E2W" depart="1301" departSpeed="10" departLane="best"/>
   <vehicle id="E2W_184" type="ego_car" route="E2W" depart="1305" departSpeed="10" departLane="best"/>
   <vehicle id="W2E_185" type="ego_car" route="W2E" depart="1310" departSpeed="10" departLane="best"/>
   <vehicle id="W2E_186" type="ego_car" route="W2E" depart="1318" departSpeed="10" departLane="best"/>
   <vehicle id="E2W_187" type="ego_car" route="E2W" depart="1327" departSpeed="10" departLane="best"/>
   <vehicle id="E2W_188" type="ego_car" route="E2W" depart="1329" departSpeed="10" departLane="best"/>
   <vehicle id="W2E_189" type="ego_car" route="W2E" depart="1331" departSpeed="10" departLane="best"/>
   <vehicle id="E2W_190" type="ego_car" route="E2W" depart="1334" departSpeed="10" departLane="best"/>
   <vehicle id="W2E_191" type="ego_car" route="W2E" depart="1345" departSpeed="10" departLane="best"/>
   <vehicle id="E2W_192" type="ego_car" route="E2W" depart="1348" departSpeed="10" departLane="best"/>
   <vehicle id="E2W_193" type="ego_car" route="E2W" depart="1357" departSpeed="10" departLane="best"/>
   <vehicle id="W2E_194" type="ego_car" route="W2E" depart="1365" departSpeed="10" departLane="best"/>
   <vehicle id="W2E_195" type="ego_car" route="W2E" depart="1367" departSpeed="10" departLane="best"/>
   <vehicle id="E2W_196" type="ego_car" route="E2W" depart="1375" departSpeed="10" departLane="best"/>
   <vehicle id="W2E_197" type="ego_car" route="W2E" depart="1378" departSpeed="10" departLane="best"/>
   <vehicle id="W2E_198" type="ego_car" route="W2E" depart="1387" departSpeed="10" departLane="best"/>
   <vehicle id="W2E_199" type="ego_car" route="W2E" depart="1394" departSpeed="10" departLane="best"/>
   <vehicle id="E2W_200" type="ego_car" route="E2W" depart="1409" departSpeed="10" departLane="best"/>
   <vehicle id="E2W_201" type="ego_car" route="E2W" depart="1410" departSpeed="10" departLane="best"/>
   <vehicle id="E2W_202" type="ego_car" route="E2W" depart="1412" departSpeed="10" departLane="best"/>
   <vehicle id="E2W_203" type="ego_car" route="E2W" depart="1422" departSpeed="10" departLane="best"/>
   <vehicle id="E2W_204" type="ego_car" route="E2W" depart="1433" departSpeed="10" departLane="best"/>
   <vehicle id="E2W_205" type="ego_car" route="E2W" depart="1435" departSpeed="10" departLane="best"/>
   <vehicle id="W2E_206" type="ego_car" route="W2E" depart="1444" departSpeed="10" departLane="best"/>
   <vehicle id="E2W_207" type="ego_car" route="E2W" depart="1453" departSpeed="10" departLane="best"/>
   <vehicle id="E2W_208" type="ego_car" route="E2W" depart="1484" departSpeed="10" departLane="best"/>
   <vehicle id="E2W_209" type="ego_car" route="E2W" depart="1489" departSpeed="10" departLane="best"/>
   <vehicle id="E2W_210" type="ego_car" route="E2W" depart="1494" departSpeed="10" departLane="best"/>
   <vehicle id="E2W_211" type="ego_car" route="E2W" depart="1504" departSpeed="10" departLane="best"/>
   <vehicle id="E2W_212" type="ego_car" route="E2W" depart="1511" departSpeed="10" departLane="best"/>
   <vehicle id="W2E_213" type="ego_car" route="W2E" depart="1513" departSpeed="10" departLane="best"/>
   <vehicle id="W2E_214" type="ego_car" route="W2E" depart="1521" departSpeed="10" departLane="best"/>
   <vehicle id="W2E_215" type="ego_car" route="W2E" depart="1543" departSpeed="10" departLane="best"/>
   <vehicle id="W2E_216" type="ego_car" route="W2E" depart="1550" departSpeed="10" departLane="best"/>
   <vehicle id="W2E_217" type="ego_car" route="W2E" depart="1561" departSpeed="10" departLane="best"/>
   <vehicle id="E2W_218" type="ego_car" route="E2W" depart="1586" departSpeed="10" departLane="best"/>
   <vehicle id="W2E_219" type="ego_car" route="W2E" depart="1590" departSpeed="10" departLane="best"/>
   <vehicle id="W2E_220" type="ego_car" route="W2E" depart="1598" departSpeed="10" departLane="best"/>
   <vehicle id="W2E_221" type="ego_car" route="W2E" depart="1619" departSpeed="10" departLane="best"/>
   <vehicle id="W2E_222" type="ego_car" route="W2E" depart="1622" departSpeed="10" departLane="best"/>
   <vehicle id="E2W_223" type="ego_car" route="E2W" depart="1703" departSpeed="10" departLane="best"/>
   <vehicle id="W2E_224" type="ego_car" route="W2E" depart="1719" departSpeed="10" departLane="best"/>
   <vehicle id="E2W_225" type="ego_car" route="E2W" depart="1789" departSpeed="10" departLane="best"/>
   <vehicle id="E2W_226" type="ego_car" route="E2W" depart="1789" departSpeed="10" departLane="best"/>
   <vehicle id="E2W_227" type="ego_car" route="E2W" depart="1789" departSpeed="10" departLane="best"/>
   <vehicle id="E2W_228" type="ego_car" route="E2W" depart="1791" departSpeed="10" departLane="best"/>
   <vehicle id="W2E_229" type="ego_car" route="W2E" depart="1802" departSpeed="10" departLane="best"/>
   <vehicle id="E2W_230" type="ego_car" route="E2W" depart="1815" departSpeed="10" departLane="best"/>
   <vehicle id="W2E_231" type="ego_car" route="W2E" depart="1854" departSpeed="10" departLane="best"/>
   <vehicle id="E2W_232" type="ego_car" route="E2W" depart="1854" departSpeed="10" departLane="best"/>
   <vehicle id="E2W_233" type="ego_car" route="E2W" depart="1856" departSpeed="10" departLane="best"/>
   <vehicle id="W2E_234" type="ego_car" route="W2E" depart="1861" departSpeed="10" departLane="best"/>
   <vehicle id="W2E_235" type="ego_car" route="W2E" depart="1862" departSpeed="10" departLane="best"/>
   <vehicle id="E2W_236" type="ego_car" route="E2W" depart="1888" departSpeed="10" departLane="best"/>
   <vehicle id="E2W_237" type="ego_car" route="E2W" depart="1908" departSpeed="10" departLane="best"/>
   <vehicle id="W2E_238" type="ego_car" route="W2E" depart="1941" departSpeed="10" departLane="best"/>
   <vehicle id="E2W_239" type="ego_car" route="E2W" depart="1941" departSpeed="10" departLane="best"/>
   <vehicle id="E2W_240" type="ego_car" route="E2W" depart="1953" departSpeed="10" departLane="best"/>
   <vehicle id="W2E_241" type="ego_car" route="W2E" depart="1964" departSpeed="10" departLane="best"/>
   <vehicle id="E2W_242" type="ego_car" route="E2W" depart="1998" departSpeed="10" departLane="best"/>
   <vehicle id="W2E_243" type="ego_car" route="W2E" depart="2023" departSpeed="10" departLane="best"/>
   <vehicle id="E2W_244" type="ego_car" route="E2W" depart="2026" departSpeed="10" departLane="best"/>
   <vehicle id="E2W_245" type="ego_car" route="E2W" depart="2043" departSpeed="10" departLane="best"/>
   <vehicle id="W2E_246" type="ego_car" route="W2E" depart="2054" departSpeed="10" departLane="best"/>
   <vehicle id="W2E_247" type="ego_car" route="W2E" depart="2077" departSpeed="10" departLane="best"/>
   <vehicle id="W2E_248" type="ego_car" route="W2E" depart="2086" departSpeed="10" departLane="best"/>
   <vehicle id="W2E_249" type="ego_car" route="W2E" depart="2109" departSpeed="10" departLane="best"/>
   <vehicle id="E2W_250" type="ego_car" route="E2W" depart="2111" departSpeed="10" departLane="best"/>
   <vehicle id="W2E_251" type="ego_car" route="W2E" depart="2225" departSpeed="10" departLane="best"/>
   <vehicle id="E2W_252" type="ego_car" route="E2W" depart="2230" departSpeed="10" departLane="best"/>
   <vehicle id="W2E_253" type="ego_car" route="W2E" depart="2248" departSpeed="10" departLane="best"/>
   <vehicle id="E2W_254" type="ego_car" route="E2W" depart="2252" departSpeed="10" departLane="best"/>
   <vehicle id="E2W_255" type="ego_car" route="E2W" depart="2302" departSpeed="10" departLane="best"/>
   <vehicle id="W2E_256" type="ego_car" route="W2E" depart="2351" departSpeed="10" departLane="best"/>
   <vehicle id="W2E_257" type="ego_car" route="W2E" depart="2404" departSpeed="10" departLane="best"/>
   <vehicle id="W2E_258" type="ego_car" route="W2E" depart="2536" departSpeed="10" departLane="best"/>
   <vehicle id="W2E_259" type="ego_car" route="W2E" depart="2592" departSpeed="10" departLane="best"/>
   <vehicle id="E2W_260" type="ego_car" route="E2W" depart="2712" departSpeed="10" departLane="best"/>
</routes>
