<routes>

        <vType id = 'ego_car' vclass="evehicle" emissionClass="Energy/unknown" tau="1" accel="3.0" decel="3.0" color="#00FFFF" sigma="0.2" length="4.90" minGap="1" maxSpeed="20" guiShape="passenger">
            <param key="has.battery.device" value="true"/>
            <param key="maximumBatteryCapacity" value="38000"/> 
            <param key="maximumPower" value="200000"/>
            <param key="vehicleMass" value="1830"/>
            <param key="frontSurfaceArea" value="2.6"/>
            <param key="airDragCoefficient" value="0.35"/>
            <param key="internalMomentOfInertia" value="0.01"/>
            <param key="radialDragCoefficient" value="0.1"/>
            <param key="rollDragCoefficient" value="0.01"/>
            <param key="constantPowerIntake" value="100"/>
            <param key="propulsionEfficiency" value="0.9"/>
            <param key="recuperationEfficiency" value="0.9"/>
            <param key="stoppingThreshold" value="0.1"/>
        </vType>
        
        <route id="W2E" edges="WE0 WE1 WE2 WE3 WE4 WE5"/>
        <route id="E2W" edges="EW0 EW1 EW2 EW3 EW4 EW5"/>
   <vehicle id="W2E_1" type="ego_car" route="W2E" depart="56" departSpeed="10" departLane="best"/>
   <vehicle id="E2W_2" type="ego_car" route="E2W" depart="87" departSpeed="10" departLane="best"/>
   <vehicle id="E2W_3" type="ego_car" route="E2W" depart="93" departSpeed="10" departLane="best"/>
   <vehicle id="W2E_4" type="ego_car" route="W2E" depart="102" departSpeed="10" departLane="best"/>
   <vehicle id="W2E_5" type="ego_car" route="W2E" depart="130" departSpeed="10" departLane="best"/>
   <vehicle id="E2W_6" type="ego_car" route="E2W" depart="141" departSpeed="10" departLane="best"/>
   <vehicle id="E2W_7" type="ego_car" route="E2W" depart="143" departSpeed="10" departLane="best"/>
   <vehicle id="E2W_8" type="ego_car" route="E2W" depart="145" departSpeed="10" departLane="best"/>
   <vehicle id="E2W_9" type="ego_car" route="E2W" depart="158" departSpeed="10" departLane="best"/>
   <vehicle id="E2W_10" type="ego_car" route="E2W" depart="164" departSpeed="10" departLane="best"/>
   <vehicle id="E2W_11" type="ego_car" route="E2W" depart="165" departSpeed="10" departLane="best"/>
   <vehicle id="E2W_12" type="ego_car" route="E2W" depart="196" departSpeed="10" departLane="best"/>
   <vehicle id="E2W_13" type="ego_car" route="E2W" depart="285" departSpeed="10" departLane="best"/>
   <vehicle id="W2E_14" type="ego_car" route="W2E" depart="287" departSpeed="10" departLane="best"/>
   <vehicle id="E2W_15" type="ego_car" route="E2W" depart="301" departSpeed="10" departLane="best"/>
   <vehicle id="E2W_16" type="ego_car" route="E2W" depart="310" departSpeed="10" departLane="best"/>
   <vehicle id="W2E_17" type="ego_car" route="W2E" depart="347" departSpeed="10" departLane="best"/>
   <vehicle id="W2E_18" type="ego_car" route="W2E" depart="354" departSpeed="10" departLane="best"/>
   <vehicle id="E2W_19" type="ego_car" route="E2W" depart="358" departSpeed="10" departLane="best"/>
   <vehicle id="E2W_20" type="ego_car" route="E2W" depart="370" departSpeed="10" departLane="best"/>
   <vehicle id="W2E_21" type="ego_car" route="W2E" depart="401" departSpeed="10" departLane="best"/>
   <vehicle id="W2E_22" type="ego_car" route="W2E" depart="403" departSpeed="10" departLane="best"/>
   <vehicle id="W2E_23" type="ego_car" route="W2E" depart="406" departSpeed="10" departLane="best"/>
   <vehicle id="W2E_24" type="ego_car" route="W2E" depart="408" departSpeed="10" departLane="best"/>
   <vehicle id="W2E_25" type="ego_car" route="W2E" depart="409" departSpeed="10" departLane="best"/>
   <vehicle id="E2W_26" type="ego_car" route="E2W" depart="431" departSpeed="10" departLane="best"/>
   <vehicle id="W2E_27" type="ego_car" route="W2E" depart="435" departSpeed="10" departLane="best"/>
   <vehicle id="E2W_28" type="ego_car" route="E2W" depart="443" departSpeed="10" departLane="best"/>
   <vehicle id="W2E_29" type="ego_car" route="W2E" depart="464" departSpeed="10" departLane="best"/>
   <vehicle id="E2W_30" type="ego_car" route="E2W" depart="479" departSpeed="10" departLane="best"/>
   <vehicle id="W2E_31" type="ego_car" route="W2E" depart="484" departSpeed="10" departLane="best"/>
   <vehicle id="W2E_32" type="ego_car" route="W2E" depart="491" departSpeed="10" departLane="best"/>
   <vehicle id="E2W_33" type="ego_car" route="E2W" depart="492" departSpeed="10" departLane="best"/>
   <vehicle id="W2E_34" type="ego_car" route="W2E" depart="498" departSpeed="10" departLane="best"/>
   <vehicle id="E2W_35" type="ego_car" route="E2W" depart="501" departSpeed="10" departLane="best"/>
   <vehicle id="E2W_36" type="ego_car" route="E2W" depart="505" departSpeed="10" departLane="best"/>
   <vehicle id="E2W_37" type="ego_car" route="E2W" depart="509" departSpeed="10" departLane="best"/>
   <vehicle id="E2W_38" type="ego_car" route="E2W" depart="523" departSpeed="10" departLane="best"/>
   <vehicle id="E2W_39" type="ego_car" route="E2W" depart="529" departSpeed="10" departLane="best"/>
   <vehicle id="E2W_40" type="ego_car" route="E2W" depart="533" departSpeed="10" departLane="best"/>
   <vehicle id="W2E_41" type="ego_car" route="W2E" depart="535" departSpeed="10" departLane="best"/>
   <vehicle id="E2W_42" type="ego_car" route="E2W" depart="544" departSpeed="10" departLane="best"/>
   <vehicle id="W2E_43" type="ego_car" route="W2E" depart="545" departSpeed="10" departLane="best"/>
   <vehicle id="W2E_44" type="ego_car" route="W2E" depart="551" departSpeed="10" departLane="best"/>
   <vehicle id="E2W_45" type="ego_car" route="E2W" depart="553" departSpeed="10" departLane="best"/>
   <vehicle id="E2W_46" type="ego_car" route="E2W" depart="556" departSpeed="10" departLane="best"/>
   <vehicle id="W2E_47" type="ego_car" route="W2E" depart="563" departSpeed="10" departLane="best"/>
   <vehicle id="E2W_48" type="ego_car" route="E2W" depart="564" departSpeed="10" departLane="best"/>
   <vehicle id="E2W_49" type="ego_car" route="E2W" depart="564" departSpeed="10" departLane="best"/>
   <vehicle id="W2E_50" type="ego_car" route="W2E" depart="565" departSpeed="10" departLane="best"/>
   <vehicle id="W2E_51" type="ego_car" route="W2E" depart="566" departSpeed="10" departLane="best"/>
   <vehicle id="E2W_52" type="ego_car" route="E2W" depart="579" departSpeed="10" departLane="best"/>
   <vehicle id="E2W_53" type="ego_car" route="E2W" depart="586" departSpeed="10" departLane="best"/>
   <vehicle id="E2W_54" type="ego_car" route="E2W" depart="593" departSpeed="10" departLane="best"/>
   <vehicle id="W2E_55" type="ego_car" route="W2E" depart="599" departSpeed="10" departLane="best"/>
   <vehicle id="W2E_56" type="ego_car" route="W2E" depart="609" departSpeed="10" departLane="best"/>
   <vehicle id="W2E_57" type="ego_car" route="W2E" depart="615" departSpeed="10" departLane="best"/>
   <vehicle id="E2W_58" type="ego_car" route="E2W" depart="620" departSpeed="10" departLane="best"/>
   <vehicle id="E2W_59" type="ego_car" route="E2W" depart="621" departSpeed="10" departLane="best"/>
   <vehicle id="E2W_60" type="ego_car" route="E2W" depart="626" departSpeed="10" departLane="best"/>
   <vehicle id="W2E_61" type="ego_car" route="W2E" depart="627" departSpeed="10" departLane="best"/>
   <vehicle id="E2W_62" type="ego_car" route="E2W" depart="627" departSpeed="10" departLane="best"/>
   <vehicle id="W2E_63" type="ego_car" route="W2E" depart="635" departSpeed="10" departLane="best"/>
   <vehicle id="W2E_64" type="ego_car" route="W2E" depart="636" departSpeed="10" departLane="best"/>
   <vehicle id="W2E_65" type="ego_car" route="W2E" depart="646" departSpeed="10" departLane="best"/>
   <vehicle id="E2W_66" type="ego_car" route="E2W" depart="648" departSpeed="10" departLane="best"/>
   <vehicle id="E2W_67" type="ego_car" route="E2W" depart="658" departSpeed="10" departLane="best"/>
   <vehicle id="W2E_68" type="ego_car" route="W2E" depart="665" departSpeed="10" departLane="best"/>
   <vehicle id="W2E_69" type="ego_car" route="W2E" depart="667" departSpeed="10" departLane="best"/>
   <vehicle id="W2E_70" type="ego_car" route="W2E" depart="674" departSpeed="10" departLane="best"/>
   <vehicle id="E2W_71" type="ego_car" route="E2W" depart="694" departSpeed="10" departLane="best"/>
   <vehicle id="W2E_72" type="ego_car" route="W2E" depart="698" departSpeed="10" departLane="best"/>
   <vehicle id="E2W_73" type="ego_car" route="E2W" depart="698" departSpeed="10" departLane="best"/>
   <vehicle id="E2W_74" type="ego_car" route="E2W" depart="706" departSpeed="10" departLane="best"/>
   <vehicle id="W2E_75" type="ego_car" route="W2E" depart="708" departSpeed="10" departLane="best"/>
   <vehicle id="E2W_76" type="ego_car" route="E2W" depart="711" departSpeed="10" departLane="best"/>
   <vehicle id="W2E_77" type="ego_car" route="W2E" depart="713" departSpeed="10" departLane="best"/>
   <vehicle id="E2W_78" type="ego_car" route="E2W" depart="716" departSpeed="10" departLane="best"/>
   <vehicle id="W2E_79" type="ego_car" route="W2E" depart="724" departSpeed="10" departLane="best"/>
   <vehicle id="W2E_80" type="ego_car" route="W2E" depart="725" departSpeed="10" departLane="best"/>
   <vehicle id="W2E_81" type="ego_car" route="W2E" depart="737" departSpeed="10" departLane="best"/>
   <vehicle id="E2W_82" type="ego_car" route="E2W" depart="742" departSpeed="10" departLane="best"/>
   <vehicle id="W2E_83" type="ego_car" route="W2E" depart="744" departSpeed="10" departLane="best"/>
   <vehicle id="E2W_84" type="ego_car" route="E2W" depart="749" departSpeed="10" departLane="best"/>
   <vehicle id="E2W_85" type="ego_car" route="E2W" depart="760" departSpeed="10" departLane="best"/>
   <vehicle id="E2W_86" type="ego_car" route="E2W" depart="773" departSpeed="10" departLane="best"/>
   <vehicle id="W2E_87" type="ego_car" route="W2E" depart="774" departSpeed="10" departLane="best"/>
   <vehicle id="W2E_88" type="ego_car" route="W2E" depart="775" departSpeed="10" departLane="best"/>
   <vehicle id="W2E_89" type="ego_car" route="W2E" depart="792" departSpeed="10" departLane="best"/>
   <vehicle id="W2E_90" type="ego_car" route="W2E" depart="793" departSpeed="10" departLane="best"/>
   <vehicle id="E2W_91" type="ego_car" route="E2W" depart="794" departSpeed="10" departLane="best"/>
   <vehicle id="W2E_92" type="ego_car" route="W2E" depart="795" departSpeed="10" departLane="best"/>
   <vehicle id="W2E_93" type="ego_car" route="W2E" depart="797" departSpeed="10" departLane="best"/>
   <vehicle id="E2W_94" type="ego_car" route="E2W" depart="809" departSpeed="10" departLane="best"/>
   <vehicle id="E2W_95" type="ego_car" route="E2W" depart="812" departSpeed="10" departLane="best"/>
   <vehicle id="W2E_96" type="ego_car" route="W2E" depart="818" departSpeed="10" departLane="best"/>
   <vehicle id="E2W_97" type="ego_car" route="E2W" depart="822" departSpeed="10" departLane="best"/>
   <vehicle id="W2E_98" type="ego_car" route="W2E" depart="828" departSpeed="10" departLane="best"/>
   <vehicle id="W2E_99" type="ego_car" route="W2E" depart="832" departSpeed="10" departLane="best"/>
   <vehicle id="W2E_100" type="ego_car" route="W2E" depart="834" departSpeed="10" departLane="best"/>
   <vehicle id="W2E_101" type="ego_car" route="W2E" depart="835" departSpeed="10" departLane="best"/>
   <vehicle id="E2W_102" type="ego_car" route="E2W" depart="836" departSpeed="10" departLane="best"/>
   <vehicle id="E2W_103" type="ego_car" route="E2W" depart="841" departSpeed="10" departLane="best"/>
   <vehicle id="E2W_104" type="ego_car" route="E2W" depart="848" departSpeed="10" departLane="best"/>
   <vehicle id="E2W_105" type="ego_car" route="E2W" depart="851" departSpeed="10" departLane="best"/>
   <vehicle id="W2E_106" type="ego_car" route="W2E" depart="854" departSpeed="10" departLane="best"/>
   <vehicle id="E2W_107" type="ego_car" route="E2W" depart="862" departSpeed="10" departLane="best"/>
   <vehicle id="W2E_108" type="ego_car" route="W2E" depart="864" departSpeed="10" departLane="best"/>
   <vehicle id="E2W_109" type="ego_car" route="E2W" depart="868" departSpeed="10" departLane="best"/>
   <vehicle id="W2E_110" type="ego_car" route="W2E" depart="874" departSpeed="10" departLane="best"/>
   <vehicle id="W2E_111" type="ego_car" route="W2E" depart="890" departSpeed="10" departLane="best"/>
   <vehicle id="E2W_112" type="ego_car" route="E2W" depart="890" departSpeed="10" departLane="best"/>
   <vehicle id="W2E_113" type="ego_car" route="W2E" depart="899" departSpeed="10" departLane="best"/>
   <vehicle id="E2W_114" type="ego_car" route="E2W" depart="907" departSpeed="10" departLane="best"/>
   <vehicle id="E2W_115" type="ego_car" route="E2W" depart="908" departSpeed="10" departLane="best"/>
   <vehicle id="E2W_116" type="ego_car" route="E2W" depart="913" departSpeed="10" departLane="best"/>
   <vehicle id="W2E_117" type="ego_car" route="W2E" depart="914" departSpeed="10" departLane="best"/>
   <vehicle id="W2E_118" type="ego_car" route="W2E" depart="917" departSpeed="10" departLane="best"/>
   <vehicle id="W2E_119" type="ego_car" route="W2E" depart="922" departSpeed="10" departLane="best"/>
   <vehicle id="E2W_120" type="ego_car" route="E2W" depart="923" departSpeed="10" departLane="best"/>
   <vehicle id="E2W_121" type="ego_car" route="E2W" depart="928" departSpeed="10" departLane="best"/>
   <vehicle id="E2W_122" type="ego_car" route="E2W" depart="932" departSpeed="10" departLane="best"/>
   <vehicle id="E2W_123" type="ego_car" route="E2W" depart="933" departSpeed="10" departLane="best"/>
   <vehicle id="W2E_124" type="ego_car" route="W2E" depart="936" departSpeed="10" departLane="best"/>
   <vehicle id="W2E_125" type="ego_car" route="W2E" depart="942" departSpeed="10" departLane="best"/>
   <vehicle id="W2E_126" type="ego_car" route="W2E" depart="943" departSpeed="10" departLane="best"/>
   <vehicle id="W2E_127" type="ego_car" route="W2E" depart="943" departSpeed="10" departLane="best"/>
   <vehicle id="E2W_128" type="ego_car" route="E2W" depart="945" departSpeed="10" departLane="best"/>
   <vehicle id="W2E_129" type="ego_car" route="W2E" depart="946" departSpeed="10" departLane="best"/>
   <vehicle id="E2W_130" type="ego_car" route="E2W" depart="952" departSpeed="10" departLane="best"/>
   <vehicle id="E2W_131" type="ego_car" route="E2W" depart="957" departSpeed="10" departLane="best"/>
   <vehicle id="E2W_132" type="ego_car" route="E2W" depart="960" departSpeed="10" departLane="best"/>
   <vehicle id="W2E_133" type="ego_car" route="W2E" depart="961" departSpeed="10" departLane="best"/>
   <vehicle id="E2W_134" type="ego_car" route="E2W" depart="962" departSpeed="10" departLane="best"/>
   <vehicle id="E2W_135" type="ego_car" route="E2W" depart="978" departSpeed="10" departLane="best"/>
   <vehicle id="W2E_136" type="ego_car" route="W2E" depart="980" departSpeed="10" departLane="best"/>
   <vehicle id="W2E_137" type="ego_car" route="W2E" depart="983" departSpeed="10" departLane="best"/>
   <vehicle id="W2E_138" type="ego_car" route="W2E" depart="984" departSpeed="10" departLane="best"/>
   <vehicle id="E2W_139" type="ego_car" route="E2W" depart="1005" departSpeed="10" departLane="best"/>
   <vehicle id="E2W_140" type="ego_car" route="E2W" depart="1006" departSpeed="10" departLane="best"/>
   <vehicle id="E2W_141" type="ego_car" route="E2W" depart="1006" departSpeed="10" departLane="best"/>
   <vehicle id="W2E_142" type="ego_car" route="W2E" depart="1008" departSpeed="10" departLane="best"/>
   <vehicle id="E2W_143" type="ego_car" route="E2W" depart="1011" departSpeed="10" departLane="best"/>
   <vehicle id="W2E_144" type="ego_car" route="W2E" depart="1012" departSpeed="10" departLane="best"/>
   <vehicle id="E2W_145" type="ego_car" route="E2W" depart="1015" departSpeed="10" departLane="best"/>
   <vehicle id="W2E_146" type="ego_car" route="W2E" depart="1021" departSpeed="10" departLane="best"/>
   <vehicle id="W2E_147" type="ego_car" route="W2E" depart="1023" departSpeed="10" departLane="best"/>
   <vehicle id="W2E_148" type="ego_car" route="W2E" depart="1026" departSpeed="10" departLane="best"/>
   <vehicle id="W2E_149" type="ego_car" route="W2E" depart="1026" departSpeed="10" departLane="best"/>
   <vehicle id="E2W_150" type="ego_car" route="E2W" depart="1028" departSpeed="10" departLane="best"/>
   <vehicle id="E2W_151" type="ego_car" route="E2W" depart="1029" departSpeed="10" departLane="best"/>
   <vehicle id="W2E_152" type="ego_car" route="W2E" depart="1030" departSpeed="10" departLane="best"/>
   <vehicle id="W2E_153" type="ego_car" route="W2E" depart="1044" departSpeed="10" departLane="best"/>
   <vehicle id="E2W_154" type="ego_car" route="E2W" depart="1047" departSpeed="10" departLane="best"/>
   <vehicle id="W2E_155" type="ego_car" route="W2E" depart="1061" departSpeed="10" departLane="best"/>
   <vehicle id="W2E_156" type="ego_car" route="W2E" depart="1061" departSpeed="10" departLane="best"/>
   <vehicle id="W2E_157" type="ego_car" route="W2E" depart="1061" departSpeed="10" departLane="best"/>
   <vehicle id="W2E_158" type="ego_car" route="W2E" depart="1066" departSpeed="10" departLane="best"/>
   <vehicle id="E2W_159" type="ego_car" route="E2W" depart="1066" departSpeed="10" departLane="best"/>
   <vehicle id="E2W_160" type="ego_car" route="E2W" depart="1071" departSpeed="10" departLane="best"/>
   <vehicle id="W2E_161" type="ego_car" route="W2E" depart="1082" departSpeed="10" departLane="best"/>
   <vehicle id="W2E_162" type="ego_car" route="W2E" depart="1083" departSpeed="10" departLane="best"/>
   <vehicle id="E2W_163" type="ego_car" route="E2W" depart="1084" departSpeed="10" departLane="best"/>
   <vehicle id="E2W_164" type="ego_car" route="E2W" depart="1099" departSpeed="10" departLane="best"/>
   <vehicle id="E2W_165" type="ego_car" route="E2W" depart="1100" departSpeed="10" departLane="best"/>
   <vehicle id="W2E_166" type="ego_car" route="W2E" depart="1112" departSpeed="10" departLane="best"/>
   <vehicle id="W2E_167" type="ego_car" route="W2E" depart="1113" departSpeed="10" departLane="best"/>
   <vehicle id="W2E_168" type="ego_car" route="W2E" depart="1115" departSpeed="10" departLane="best"/>
   <vehicle id="E2W_169" type="ego_car" route="E2W" depart="1124" departSpeed="10" departLane="best"/>
   <vehicle id="W2E_170" type="ego_car" route="W2E" depart="1125" departSpeed="10" departLane="best"/>
   <vehicle id="W2E_171" type="ego_car" route="W2E" depart="1135" departSpeed="10" departLane="best"/>
   <vehicle id="E2W_172" type="ego_car" route="E2W" depart="1138" departSpeed="10" departLane="best"/>
   <vehicle id="W2E_173" type="ego_car" route="W2E" depart="1139" departSpeed="10" departLane="best"/>
   <vehicle id="E2W_174" type="ego_car" route="E2W" depart="1146" departSpeed="10" departLane="best"/>
   <vehicle id="W2E_175" type="ego_car" route="W2E" depart="1150" departSpeed="10" departLane="best"/>
   <vehicle id="W2E_176" type="ego_car" route="W2E" depart="1157" departSpeed="10" departLane="best"/>
   <vehicle id="W2E_177" type="ego_car" route="W2E" depart="1160" departSpeed="10" departLane="best"/>
   <vehicle id="W2E_178" type="ego_car" route="W2E" depart="1162" departSpeed="10" departLane="best"/>
   <vehicle id="E2W_179" type="ego_car" route="E2W" depart="1171" departSpeed="10" departLane="best"/>
   <vehicle id="W2E_180" type="ego_car" route="W2E" depart="1175" departSpeed="10" departLane="best"/>
   <vehicle id="E2W_181" type="ego_car" route="E2W" depart="1192" departSpeed="10" departLane="best"/>
   <vehicle id="E2W_182" type="ego_car" route="E2W" depart="1193" departSpeed="10" departLane="best"/>
   <vehicle id="W2E_183" type="ego_car" route="W2E" depart="1196" departSpeed="10" departLane="best"/>
   <vehicle id="W2E_184" type="ego_car" route="W2E" depart="1202" departSpeed="10" departLane="best"/>
   <vehicle id="W2E_185" type="ego_car" route="W2E" depart="1208" departSpeed="10" departLane="best"/>
   <vehicle id="W2E_186" type="ego_car" route="W2E" depart="1221" departSpeed="10" departLane="best"/>
   <vehicle id="W2E_187" type="ego_car" route="W2E" depart="1222" departSpeed="10" departLane="best"/>
   <vehicle id="W2E_188" type="ego_car" route="W2E" depart="1226" departSpeed="10" departLane="best"/>
   <vehicle id="E2W_189" type="ego_car" route="E2W" depart="1229" departSpeed="10" departLane="best"/>
   <vehicle id="W2E_190" type="ego_car" route="W2E" depart="1235" departSpeed="10" departLane="best"/>
   <vehicle id="W2E_191" type="ego_car" route="W2E" depart="1237" departSpeed="10" departLane="best"/>
   <vehicle id="E2W_192" type="ego_car" route="E2W" depart="1240" departSpeed="10" departLane="best"/>
   <vehicle id="E2W_193" type="ego_car" route="E2W" depart="1241" departSpeed="10" departLane="best"/>
   <vehicle id="E2W_194" type="ego_car" route="E2W" depart="1251" departSpeed="10" departLane="best"/>
   <vehicle id="W2E_195" type="ego_car" route="W2E" depart="1252" departSpeed="10" departLane="best"/>
   <vehicle id="W2E_196" type="ego_car" route="W2E" depart="1254" departSpeed="10" departLane="best"/>
   <vehicle id="W2E_197" type="ego_car" route="W2E" depart="1258" departSpeed="10" departLane="best"/>
   <vehicle id="E2W_198" type="ego_car" route="E2W" depart="1262" departSpeed="10" departLane="best"/>
   <vehicle id="E2W_199" type="ego_car" route="E2W" depart="1267" departSpeed="10" departLane="best"/>
   <vehicle id="E2W_200" type="ego_car" route="E2W" depart="1271" departSpeed="10" departLane="best"/>
   <vehicle id="E2W_201" type="ego_car" route="E2W" depart="1278" departSpeed="10" departLane="best"/>
   <vehicle id="W2E_202" type="ego_car" route="W2E" depart="1279" departSpeed="10" departLane="best"/>
   <vehicle id="W2E_203" type="ego_car" route="W2E" depart="1283" departSpeed="10" departLane="best"/>
   <vehicle id="E2W_204" type="ego_car" route="E2W" depart="1284" departSpeed="10" departLane="best"/>
   <vehicle id="E2W_205" type="ego_car" route="E2W" depart="1285" departSpeed="10" departLane="best"/>
   <vehicle id="E2W_206" type="ego_car" route="E2W" depart="1292" departSpeed="10" departLane="best"/>
   <vehicle id="E2W_207" type="ego_car" route="E2W" depart="1300" departSpeed="10" departLane="best"/>
   <vehicle id="E2W_208" type="ego_car" route="E2W" depart="1304" departSpeed="10" departLane="best"/>
   <vehicle id="E2W_209" type="ego_car" route="E2W" depart="1310" departSpeed="10" departLane="best"/>
   <vehicle id="E2W_210" type="ego_car" route="E2W" depart="1318" departSpeed="10" departLane="best"/>
   <vehicle id="E2W_211" type="ego_car" route="E2W" depart="1332" departSpeed="10" departLane="best"/>
   <vehicle id="E2W_212" type="ego_car" route="E2W" depart="1340" departSpeed="10" departLane="best"/>
   <vehicle id="E2W_213" type="ego_car" route="E2W" depart="1345" departSpeed="10" departLane="best"/>
   <vehicle id="E2W_214" type="ego_car" route="E2W" depart="1346" departSpeed="10" departLane="best"/>
   <vehicle id="E2W_215" type="ego_car" route="E2W" depart="1348" departSpeed="10" departLane="best"/>
   <vehicle id="W2E_216" type="ego_car" route="W2E" depart="1395" departSpeed="10" departLane="best"/>
   <vehicle id="E2W_217" type="ego_car" route="E2W" depart="1399" departSpeed="10" departLane="best"/>
   <vehicle id="E2W_218" type="ego_car" route="E2W" depart="1401" departSpeed="10" departLane="best"/>
   <vehicle id="W2E_219" type="ego_car" route="W2E" depart="1413" departSpeed="10" departLane="best"/>
   <vehicle id="W2E_220" type="ego_car" route="W2E" depart="1430" departSpeed="10" departLane="best"/>
   <vehicle id="E2W_221" type="ego_car" route="E2W" depart="1442" departSpeed="10" departLane="best"/>
   <vehicle id="E2W_222" type="ego_car" route="E2W" depart="1462" departSpeed="10" departLane="best"/>
   <vehicle id="W2E_223" type="ego_car" route="W2E" depart="1464" departSpeed="10" departLane="best"/>
   <vehicle id="W2E_224" type="ego_car" route="W2E" depart="1476" departSpeed="10" departLane="best"/>
   <vehicle id="W2E_225" type="ego_car" route="W2E" depart="1483" departSpeed="10" departLane="best"/>
   <vehicle id="E2W_226" type="ego_car" route="E2W" depart="1499" departSpeed="10" departLane="best"/>
   <vehicle id="W2E_227" type="ego_car" route="W2E" depart="1505" departSpeed="10" departLane="best"/>
   <vehicle id="W2E_228" type="ego_car" route="W2E" depart="1521" departSpeed="10" departLane="best"/>
   <vehicle id="W2E_229" type="ego_car" route="W2E" depart="1530" departSpeed="10" departLane="best"/>
   <vehicle id="E2W_230" type="ego_car" route="E2W" depart="1537" departSpeed="10" departLane="best"/>
   <vehicle id="E2W_231" type="ego_car" route="E2W" depart="1540" departSpeed="10" departLane="best"/>
   <vehicle id="W2E_232" type="ego_car" route="W2E" depart="1547" departSpeed="10" departLane="best"/>
   <vehicle id="E2W_233" type="ego_car" route="E2W" depart="1581" departSpeed="10" departLane="best"/>
   <vehicle id="E2W_234" type="ego_car" route="E2W" depart="1584" departSpeed="10" departLane="best"/>
   <vehicle id="W2E_235" type="ego_car" route="W2E" depart="1587" departSpeed="10" departLane="best"/>
   <vehicle id="E2W_236" type="ego_car" route="E2W" depart="1620" departSpeed="10" departLane="best"/>
   <vehicle id="E2W_237" type="ego_car" route="E2W" depart="1620" departSpeed="10" departLane="best"/>
   <vehicle id="W2E_238" type="ego_car" route="W2E" depart="1629" departSpeed="10" departLane="best"/>
   <vehicle id="E2W_239" type="ego_car" route="E2W" depart="1637" departSpeed="10" departLane="best"/>
   <vehicle id="W2E_240" type="ego_car" route="W2E" depart="1644" departSpeed="10" departLane="best"/>
   <vehicle id="W2E_241" type="ego_car" route="W2E" depart="1646" departSpeed="10" departLane="best"/>
   <vehicle id="W2E_242" type="ego_car" route="W2E" depart="1649" departSpeed="10" departLane="best"/>
   <vehicle id="W2E_243" type="ego_car" route="W2E" depart="1677" departSpeed="10" departLane="best"/>
   <vehicle id="E2W_244" type="ego_car" route="E2W" depart="1678" departSpeed="10" departLane="best"/>
   <vehicle id="W2E_245" type="ego_car" route="W2E" depart="1696" departSpeed="10" departLane="best"/>
   <vehicle id="E2W_246" type="ego_car" route="E2W" depart="1714" departSpeed="10" departLane="best"/>
   <vehicle id="W2E_247" type="ego_car" route="W2E" depart="1772" departSpeed="10" departLane="best"/>
   <vehicle id="W2E_248" type="ego_car" route="W2E" depart="1865" departSpeed="10" departLane="best"/>
   <vehicle id="E2W_249" type="ego_car" route="E2W" depart="1866" departSpeed="10" departLane="best"/>
   <vehicle id="W2E_250" type="ego_car" route="W2E" depart="1869" departSpeed="10" departLane="best"/>
   <vehicle id="W2E_251" type="ego_car" route="W2E" depart="1873" departSpeed="10" departLane="best"/>
   <vehicle id="E2W_252" type="ego_car" route="E2W" depart="1904" departSpeed="10" departLane="best"/>
   <vehicle id="W2E_253" type="ego_car" route="W2E" depart="1910" departSpeed="10" departLane="best"/>
   <vehicle id="W2E_254" type="ego_car" route="W2E" depart="1950" departSpeed="10" departLane="best"/>
   <vehicle id="W2E_255" type="ego_car" route="W2E" depart="1967" departSpeed="10" departLane="best"/>
   <vehicle id="W2E_256" type="ego_car" route="W2E" depart="1973" departSpeed="10" departLane="best"/>
   <vehicle id="E2W_257" type="ego_car" route="E2W" depart="1994" departSpeed="10" departLane="best"/>
   <vehicle id="E2W_258" type="ego_car" route="E2W" depart="2001" departSpeed="10" departLane="best"/>
   <vehicle id="W2E_259" type="ego_car" route="W2E" depart="2008" departSpeed="10" departLane="best"/>
   <vehicle id="E2W_260" type="ego_car" route="E2W" depart="2031" departSpeed="10" departLane="best"/>
   <vehicle id="E2W_261" type="ego_car" route="E2W" depart="2050" departSpeed="10" departLane="best"/>
   <vehicle id="E2W_262" type="ego_car" route="E2W" depart="2051" departSpeed="10" departLane="best"/>
   <vehicle id="W2E_263" type="ego_car" route="W2E" depart="2062" departSpeed="10" departLane="best"/>
   <vehicle id="E2W_264" type="ego_car" route="E2W" depart="2094" departSpeed="10" departLane="best"/>
   <vehicle id="W2E_265" type="ego_car" route="W2E" depart="2096" departSpeed="10" departLane="best"/>
   <vehicle id="W2E_266" type="ego_car" route="W2E" depart="2124" departSpeed="10" departLane="best"/>
   <vehicle id="W2E_267" type="ego_car" route="W2E" depart="2157" departSpeed="10" departLane="best"/>
   <vehicle id="W2E_268" type="ego_car" route="W2E" depart="2214" departSpeed="10" departLane="best"/>
   <vehicle id="E2W_269" type="ego_car" route="E2W" depart="2357" departSpeed="10" departLane="best"/>
   <vehicle id="E2W_270" type="ego_car" route="E2W" depart="2391" departSpeed="10" departLane="best"/>
   <vehicle id="W2E_271" type="ego_car" route="W2E" depart="2443" departSpeed="10" departLane="best"/>
   <vehicle id="E2W_272" type="ego_car" route="E2W" depart="2468" departSpeed="10" departLane="best"/>
   <vehicle id="W2E_273" type="ego_car" route="W2E" depart="2504" departSpeed="10" departLane="best"/>
   <vehicle id="E2W_274" type="ego_car" route="E2W" depart="2514" departSpeed="10" departLane="best"/>
   <vehicle id="W2E_275" type="ego_car" route="W2E" depart="2558" departSpeed="10" departLane="best"/>
   <vehicle id="E2W_276" type="ego_car" route="E2W" depart="2644" departSpeed="10" departLane="best"/>
   <vehicle id="E2W_277" type="ego_car" route="E2W" depart="2829" departSpeed="10" departLane="best"/>
   <vehicle id="W2E_278" type="ego_car" route="W2E" depart="2873" departSpeed="10" departLane="best"/>
   <vehicle id="E2W_279" type="ego_car" route="E2W" depart="3159" departSpeed="10" departLane="best"/>
   <vehicle id="E2W_280" type="ego_car" route="E2W" depart="3306" departSpeed="10" departLane="best"/>
</routes>
