<?xml version="1.0" encoding="UTF-8"?>

<!-- generated on 2023-04-15 10:54:32 by Eclipse SUMO netedit Version v1_16_0+0802-cb0bb8ac9af
<configuration xmlns:xsi="http://www.w3.org/2001/XMLSchema-instance" xsi:noNamespaceSchemaLocation="http://sumo.dlr.de/xsd/netconvertConfiguration.xsd">

    <input>
        <sumo-net-file value="test.net.xml"/>
    </input>

    <output>
        <output-file value="test.net.xml"/>
    </output>

    <processing>
        <geometry.min-radius.fix.railways value="false"/>
        <geometry.max-grade.fix value="false"/>
        <offset.disable-normalization value="true"/>
        <lefthand value="0"/>
    </processing>

    <junctions>
        <no-turnarounds value="true"/>
        <junctions.corner-detail value="5"/>
        <junctions.limit-turn-speed value="5.50"/>
        <rectangular-lane-cut value="0"/>
    </junctions>

    <pedestrian>
        <walkingareas value="0"/>
    </pedestrian>

</configuration>
-->

<net version="1.16" junctionCornerDetail="5" limitTurnSpeed="5.50" xmlns:xsi="http://www.w3.org/2001/XMLSchema-instance" xsi:noNamespaceSchemaLocation="http://sumo.dlr.de/xsd/net_file.xsd">

    <location netOffset="-796648.54,-3391275.01" convBoundary="0.00,0.00,7390.42,10571.08" origBoundary="113.982800,30.617033,114.173608,30.720387" projParameter="+proj=utm +zone=49 +ellps=WGS84 +datum=WGS84 +units=m +no_defs"/>

    <type id="highway.bridleway" priority="1" numLanes="1" speed="2.78" allow="pedestrian" oneway="1" width="2.00"/>
    <type id="highway.bus_guideway" priority="1" numLanes="1" speed="27.78" allow="bus" oneway="1"/>
    <type id="highway.cycleway" priority="1" numLanes="1" speed="5.56" allow="bicycle" oneway="0" width="1.00"/>
    <type id="highway.footway" priority="1" numLanes="1" speed="2.78" allow="pedestrian" oneway="1" width="2.00"/>
    <type id="highway.ford" priority="1" numLanes="1" speed="2.78" allow="army" oneway="0"/>
    <type id="highway.living_street" priority="2" numLanes="1" speed="2.78" disallow="tram rail_urban rail rail_electric rail_fast ship" oneway="0"/>
    <type id="highway.motorway" priority="14" numLanes="2" speed="39.44" allow="private emergency authority army vip passenger hov taxi bus coach delivery truck trailer motorcycle evehicle custom1 custom2" oneway="1"/>
    <type id="highway.motorway_link" priority="9" numLanes="1" speed="22.22" allow="private emergency authority army vip passenger hov taxi bus coach delivery truck trailer motorcycle evehicle custom1 custom2" oneway="1"/>
    <type id="highway.path" priority="1" numLanes="1" speed="5.56" allow="pedestrian bicycle" oneway="0" width="2.00"/>
    <type id="highway.pedestrian" priority="1" numLanes="1" speed="2.78" allow="pedestrian" oneway="1" width="2.00"/>
    <type id="highway.primary" priority="12" numLanes="2" speed="27.78" disallow="tram rail_urban rail rail_electric rail_fast ship" oneway="0"/>
    <type id="highway.primary_link" priority="7" numLanes="1" speed="22.22" disallow="tram rail_urban rail rail_electric rail_fast ship" oneway="0"/>
    <type id="highway.raceway" priority="15" numLanes="2" speed="83.33" allow="vip" oneway="0"/>
    <type id="highway.residential" priority="3" numLanes="1" speed="13.89" disallow="tram rail_urban rail rail_electric rail_fast ship" oneway="0"/>
    <type id="highway.secondary" priority="11" numLanes="1" speed="27.78" disallow="tram rail_urban rail rail_electric rail_fast ship" oneway="0"/>
    <type id="highway.secondary_link" priority="6" numLanes="1" speed="22.22" disallow="tram rail_urban rail rail_electric rail_fast ship" oneway="0"/>
    <type id="highway.service" priority="1" numLanes="1" speed="5.56" allow="pedestrian delivery bicycle" oneway="0"/>
    <type id="highway.stairs" priority="1" numLanes="1" speed="1.39" allow="pedestrian" oneway="1" width="2.00"/>
    <type id="highway.step" priority="1" numLanes="1" speed="1.39" allow="pedestrian" oneway="1" width="2.00"/>
    <type id="highway.steps" priority="1" numLanes="1" speed="1.39" allow="pedestrian" oneway="1" width="2.00"/>
    <type id="highway.tertiary" priority="10" numLanes="1" speed="22.22" disallow="tram rail_urban rail rail_electric rail_fast ship" oneway="0"/>
    <type id="highway.tertiary_link" priority="5" numLanes="1" speed="22.22" disallow="tram rail_urban rail rail_electric rail_fast ship" oneway="0"/>
    <type id="highway.track" priority="1" numLanes="1" speed="5.56" allow="pedestrian motorcycle moped bicycle" oneway="0"/>
    <type id="highway.trunk" priority="13" numLanes="2" speed="27.78" disallow="pedestrian bicycle tram rail_urban rail rail_electric rail_fast ship" oneway="0"/>
    <type id="highway.trunk_link" priority="8" numLanes="1" speed="22.22" disallow="pedestrian bicycle tram rail_urban rail rail_electric rail_fast ship" oneway="0"/>
    <type id="highway.unclassified" priority="4" numLanes="1" speed="13.89" disallow="tram rail_urban rail rail_electric rail_fast ship" oneway="0"/>
    <type id="highway.unsurfaced" priority="1" numLanes="1" speed="8.33" disallow="tram rail_urban rail rail_electric rail_fast ship" oneway="0"/>
    <type id="railway.highspeed" priority="21" numLanes="1" speed="69.44" allow="rail_fast" oneway="1"/>
    <type id="railway.light_rail" priority="19" numLanes="1" speed="27.78" allow="rail_urban" oneway="1"/>
    <type id="railway.preserved" priority="16" numLanes="1" speed="27.78" allow="rail" oneway="1"/>
    <type id="railway.rail" priority="20" numLanes="1" speed="44.44" allow="rail" oneway="1"/>
    <type id="railway.subway" priority="18" numLanes="1" speed="27.78" allow="rail_urban" oneway="1"/>
    <type id="railway.tram" priority="17" numLanes="1" speed="13.89" allow="tram" oneway="1"/>

    <edge id=":299070353#2-AddedOffRampNode_0" function="internal">
        <lane id=":299070353#2-AddedOffRampNode_0_0" index="0" disallow="tram rail_urban rail rail_electric rail_fast ship" speed="27.78" length="8.25" shape="3642.17,7022.04 3639.72,7022.50 3638.19,7023.58 3636.65,7024.67 3634.20,7025.17"/>
        <lane id=":299070353#2-AddedOffRampNode_0_1" index="1" disallow="tram rail_urban rail rail_electric rail_fast ship" speed="27.78" length="8.25" shape="3642.17,7022.04 3634.20,7021.97"/>
        <lane id=":299070353#2-AddedOffRampNode_0_2" index="2" disallow="tram rail_urban rail rail_electric rail_fast ship" speed="27.78" length="8.25" shape="3642.23,7018.84 3634.20,7018.77"/>
    </edge>
    <edge id=":299070353#4-AddedOnRampNode_0" function="internal">
        <lane id=":299070353#4-AddedOnRampNode_0_0" index="0" disallow="tram rail_urban rail rail_electric rail_fast ship" speed="27.78" length="0.10" shape="3414.64,7027.58 3414.64,7027.58"/>
        <lane id=":299070353#4-AddedOnRampNode_0_1" index="1" disallow="tram rail_urban rail rail_electric rail_fast ship" speed="27.78" length="0.10" shape="3414.28,7024.40 3414.28,7024.40"/>
        <lane id=":299070353#4-AddedOnRampNode_0_2" index="2" disallow="tram rail_urban rail rail_electric rail_fast ship" speed="27.78" length="0.10" shape="3413.92,7021.22 3413.92,7021.22"/>
    </edge>
    <edge id=":3044755289_0" function="internal">
        <lane id=":3044755289_0_0" index="0" disallow="tram rail_urban rail rail_electric rail_fast ship" speed="3.65" length="4.67" shape="6040.35,6576.50 6041.52,6577.34 6041.89,6578.16 6041.46,6578.94 6040.23,6579.70"/>
    </edge>
    <edge id=":5072733734_0" function="internal">
        <lane id=":5072733734_0_0" index="0" allow="private emergency authority army vip passenger hov taxi bus coach delivery truck trailer motorcycle evehicle custom1 custom2" speed="30.83" length="2.62" shape="3560.84,8362.31 3563.34,8361.54"/>
    </edge>
    <edge id=":5072733734_1" function="internal">
        <lane id=":5072733734_1_0" index="0" allow="private emergency authority army vip passenger hov taxi bus coach delivery truck trailer motorcycle evehicle custom1 custom2" speed="39.44" length="2.93" shape="3561.74,8365.41 3564.38,8364.57"/>
        <lane id=":5072733734_1_1" index="1" allow="private emergency authority army vip passenger hov taxi bus coach delivery truck trailer motorcycle evehicle custom1 custom2" speed="39.44" length="2.93" shape="3562.63,8368.48 3565.42,8367.59"/>
        <lane id=":5072733734_1_2" index="2" allow="private emergency authority army vip passenger hov taxi bus coach delivery truck trailer motorcycle evehicle custom1 custom2" speed="39.44" length="2.93" shape="3563.51,8371.56 3566.46,8370.62"/>
    </edge>
    <edge id=":520457928#0-AddedOffRampNode_0" function="internal">
        <lane id=":520457928#0-AddedOffRampNode_0_0" index="0" allow="private emergency authority army vip passenger hov taxi bus coach delivery truck trailer motorcycle evehicle custom1 custom2" speed="39.44" length="8.20" shape="2289.06,8605.73 2291.15,8604.33 2292.15,8602.72 2293.15,8601.12 2295.24,8599.72"/>
        <lane id=":520457928#0-AddedOffRampNode_0_1" index="1" allow="private emergency authority army vip passenger hov taxi bus coach delivery truck trailer motorcycle evehicle custom1 custom2" speed="39.44" length="8.20" shape="2289.06,8605.73 2296.46,8602.68"/>
        <lane id=":520457928#0-AddedOffRampNode_0_2" index="2" allow="private emergency authority army vip passenger hov taxi bus coach delivery truck trailer motorcycle evehicle custom1 custom2" speed="39.44" length="8.20" shape="2290.28,8608.68 2297.68,8605.63"/>
        <lane id=":520457928#0-AddedOffRampNode_0_3" index="3" allow="private emergency authority army vip passenger hov taxi bus coach delivery truck trailer motorcycle evehicle custom1 custom2" speed="39.44" length="8.20" shape="2291.50,8611.64 2298.90,8608.59"/>
    </edge>
    <edge id=":520457928#2-AddedOnRampNode_0" function="internal">
        <lane id=":520457928#2-AddedOnRampNode_0_0" index="0" allow="private emergency authority army vip passenger hov taxi bus coach delivery truck trailer motorcycle evehicle custom1 custom2" speed="39.44" length="8.00" shape="3653.81,8333.87 3661.38,8331.27"/>
        <lane id=":520457928#2-AddedOnRampNode_0_1" index="1" allow="private emergency authority army vip passenger hov taxi bus coach delivery truck trailer motorcycle evehicle custom1 custom2" speed="39.44" length="8.00" shape="3654.85,8336.89 3662.41,8334.29"/>
        <lane id=":520457928#2-AddedOnRampNode_0_2" index="2" allow="private emergency authority army vip passenger hov taxi bus coach delivery truck trailer motorcycle evehicle custom1 custom2" speed="39.44" length="8.00" shape="3655.89,8339.92 3663.45,8337.32"/>
    </edge>
    <edge id=":544372381#10-AddedOnRampNode_0" function="internal">
        <lane id=":544372381#10-AddedOnRampNode_0_0" index="0" disallow="tram rail_urban rail rail_electric rail_fast ship" speed="27.78" length="7.97" shape="3634.22,7012.15 3642.21,7012.26"/>
        <lane id=":544372381#10-AddedOnRampNode_0_1" index="1" disallow="tram rail_urban rail rail_electric rail_fast ship" speed="27.78" length="7.97" shape="3634.20,7015.35 3642.15,7015.45"/>
    </edge>
    <edge id=":544372381#8-AddedOnRampNode_0" function="internal">
        <lane id=":544372381#8-AddedOnRampNode_0_0" index="0" disallow="tram rail_urban rail rail_electric rail_fast ship" speed="27.78" length="0.30" shape="3457.62,7004.33 3457.95,7004.34"/>
        <lane id=":544372381#8-AddedOnRampNode_0_1" index="1" disallow="tram rail_urban rail rail_electric rail_fast ship" speed="27.78" length="0.30" shape="3457.47,7007.52 3457.77,7007.54"/>
        <lane id=":544372381#8-AddedOnRampNode_0_2" index="2" disallow="tram rail_urban rail rail_electric rail_fast ship" speed="27.78" length="0.30" shape="3457.32,7010.72 3457.59,7010.73"/>
    </edge>
    <edge id=":551663540#0-AddedOffRampNode_0" function="internal">
        <lane id=":551663540#0-AddedOffRampNode_0_0" index="0" allow="private emergency authority army vip passenger hov taxi bus coach delivery truck trailer motorcycle evehicle custom1 custom2" speed="39.44" length="8.20" shape="2159.47,7885.01 2161.81,7885.92 2163.70,7885.82 2165.58,7885.73 2167.93,7886.63"/>
        <lane id=":551663540#0-AddedOffRampNode_0_1" index="1" allow="private emergency authority army vip passenger hov taxi bus coach delivery truck trailer motorcycle evehicle custom1 custom2" speed="39.44" length="8.20" shape="2159.47,7885.01 2166.20,7889.33"/>
        <lane id=":551663540#0-AddedOffRampNode_0_2" index="2" allow="private emergency authority army vip passenger hov taxi bus coach delivery truck trailer motorcycle evehicle custom1 custom2" speed="39.44" length="8.20" shape="2157.74,7887.70 2164.48,7892.02"/>
        <lane id=":551663540#0-AddedOffRampNode_0_3" index="3" allow="private emergency authority army vip passenger hov taxi bus coach delivery truck trailer motorcycle evehicle custom1 custom2" speed="39.44" length="8.20" shape="2156.02,7890.40 2162.75,7894.72"/>
    </edge>
    <edge id=":6283415776_0" function="internal">
        <lane id=":6283415776_0_0" index="0" allow="private emergency authority army vip passenger hov taxi bus coach delivery truck trailer motorcycle evehicle custom1 custom2" speed="30.83" length="3.19" shape="2249.92,7932.26 2250.76,7932.70 2251.34,7932.99 2251.93,7933.25 2252.81,7933.60"/>
    </edge>
    <edge id=":6283415776_1" function="internal">
        <lane id=":6283415776_1_0" index="0" allow="private emergency authority army vip passenger hov taxi bus coach delivery truck trailer motorcycle evehicle custom1 custom2" speed="39.44" length="3.56" shape="2248.41,7935.08 2251.45,7936.61"/>
        <lane id=":6283415776_1_1" index="1" allow="private emergency authority army vip passenger hov taxi bus coach delivery truck trailer motorcycle evehicle custom1 custom2" speed="39.44" length="3.56" shape="2246.89,7937.89 2250.07,7939.50"/>
        <lane id=":6283415776_1_2" index="2" allow="private emergency authority army vip passenger hov taxi bus coach delivery truck trailer motorcycle evehicle custom1 custom2" speed="39.44" length="3.56" shape="2245.37,7940.71 2248.69,7942.39"/>
    </edge>
    <edge id=":6283415782_0" function="internal">
        <lane id=":6283415782_0_0" index="0" allow="private emergency authority army vip passenger hov taxi bus coach delivery truck trailer motorcycle evehicle custom1 custom2" speed="22.22" length="3.18" shape="2761.68,8173.51 2762.10,8174.36 2762.40,8174.93 2762.73,8175.49 2763.24,8176.28"/>
    </edge>
    <edge id=":6283415782_1" function="internal">
        <lane id=":6283415782_1_0" index="0" allow="private emergency authority army vip passenger hov taxi bus coach delivery truck trailer motorcycle evehicle custom1 custom2" speed="22.22" length="3.21" shape="2758.81,8174.92 2759.23,8175.78 2759.50,8176.37 2759.75,8176.98 2760.08,8177.87"/>
    </edge>
    <edge id=":6283419786_0" function="internal">
        <lane id=":6283419786_0_0" index="0" allow="private emergency authority army vip passenger hov taxi bus coach delivery truck trailer motorcycle evehicle custom1 custom2" speed="22.22" length="3.57" shape="2763.79,8465.57 2761.69,8468.46"/>
    </edge>
    <edge id=":6283419786_1" function="internal">
        <lane id=":6283419786_1_0" index="0" allow="private emergency authority army vip passenger hov taxi bus coach delivery truck trailer motorcycle evehicle custom1 custom2" speed="22.22" length="3.41" shape="2760.87,8463.58 2760.47,8464.51 2760.15,8465.13 2759.77,8465.70 2759.16,8466.51"/>
    </edge>
    <edge id=":6283419793_0" function="internal">
        <lane id=":6283419793_0_0" index="0" allow="private emergency authority army vip passenger hov taxi bus coach delivery truck trailer motorcycle evehicle custom1 custom2" speed="30.83" length="3.03" shape="2190.55,8674.70 2187.74,8675.83"/>
    </edge>
    <edge id=":6283419793_1" function="internal">
        <lane id=":6283419793_1_0" index="0" allow="private emergency authority army vip passenger hov taxi bus coach delivery truck trailer motorcycle evehicle custom1 custom2" speed="39.44" length="3.00" shape="2189.22,8671.68 2186.46,8672.90"/>
        <lane id=":6283419793_1_1" index="1" allow="private emergency authority army vip passenger hov taxi bus coach delivery truck trailer motorcycle evehicle custom1 custom2" speed="39.44" length="3.00" shape="2187.92,8668.76 2185.18,8669.97"/>
        <lane id=":6283419793_1_2" index="2" allow="private emergency authority army vip passenger hov taxi bus coach delivery truck trailer motorcycle evehicle custom1 custom2" speed="39.44" length="3.00" shape="2186.62,8665.83 2183.90,8667.04"/>
    </edge>
    <edge id=":6283419794_0" function="internal">
        <lane id=":6283419794_0_0" index="0" allow="private emergency authority army vip passenger hov taxi bus coach delivery truck trailer motorcycle evehicle custom1 custom2" speed="30.83" length="3.14" shape="3417.97,8253.52 3417.05,8253.36 3416.42,8253.26 3415.79,8253.19 3414.86,8253.11"/>
    </edge>
    <edge id=":6283419794_1" function="internal">
        <lane id=":6283419794_1_0" index="0" allow="private emergency authority army vip passenger hov taxi bus coach delivery truck trailer motorcycle evehicle custom1 custom2" speed="39.44" length="3.16" shape="3418.53,8250.37 3415.40,8249.80"/>
        <lane id=":6283419794_1_1" index="1" allow="private emergency authority army vip passenger hov taxi bus coach delivery truck trailer motorcycle evehicle custom1 custom2" speed="39.44" length="3.16" shape="3419.10,8247.22 3415.98,8246.66"/>
        <lane id=":6283419794_1_2" index="2" allow="private emergency authority army vip passenger hov taxi bus coach delivery truck trailer motorcycle evehicle custom1 custom2" speed="39.44" length="3.16" shape="3419.66,8244.07 3416.57,8243.51"/>
    </edge>
    <edge id=":6283419795_0" function="internal">
        <lane id=":6283419795_0_0" index="0" allow="private emergency authority army vip passenger hov taxi bus coach delivery truck trailer motorcycle evehicle custom1 custom2" speed="22.22" length="3.59" shape="3127.93,8231.69 3126.87,8231.61 3126.13,8231.60 3125.41,8231.67 3124.35,8231.81"/>
    </edge>
    <edge id=":6283419795_1" function="internal">
        <lane id=":6283419795_1_0" index="0" allow="private emergency authority army vip passenger hov taxi bus coach delivery truck trailer motorcycle evehicle custom1 custom2" speed="22.22" length="4.19" shape="3128.20,8228.50 3126.96,8228.41 3126.11,8228.39 3125.26,8228.43 3124.02,8228.52"/>
    </edge>
    <edge id=":6283419803_0" function="internal">
        <lane id=":6283419803_0_0" index="0" allow="private emergency authority army vip passenger hov taxi bus coach delivery truck trailer motorcycle evehicle custom1 custom2" speed="22.22" length="3.31" shape="3092.55,8425.33 3093.51,8425.53 3094.18,8425.64 3094.85,8425.69 3095.83,8425.71"/>
    </edge>
    <edge id=":6283419803_1" function="internal">
        <lane id=":6283419803_1_0" index="0" allow="private emergency authority army vip passenger hov taxi bus coach delivery truck trailer motorcycle evehicle custom1 custom2" speed="22.22" length="3.76" shape="3092.03,8428.63 3093.14,8428.76 3093.90,8428.84 3094.66,8428.88 3095.78,8428.91"/>
    </edge>
    <edge id=":6283419810_0" function="internal">
        <lane id=":6283419810_0_0" index="0" allow="private emergency authority army vip passenger hov taxi bus coach delivery truck trailer motorcycle evehicle custom1 custom2" speed="30.83" length="3.05" shape="3169.68,8475.57 3166.66,8475.99"/>
    </edge>
    <edge id=":6283419810_1" function="internal">
        <lane id=":6283419810_1_0" index="0" allow="private emergency authority army vip passenger hov taxi bus coach delivery truck trailer motorcycle evehicle custom1 custom2" speed="39.44" length="2.64" shape="3169.12,8472.42 3168.29,8472.56 3167.72,8472.66 3167.15,8472.72 3166.30,8472.79"/>
        <lane id=":6283419810_1_1" index="1" allow="private emergency authority army vip passenger hov taxi bus coach delivery truck trailer motorcycle evehicle custom1 custom2" speed="39.44" length="2.64" shape="3168.57,8469.27 3167.80,8469.40 3167.26,8469.49 3166.73,8469.54 3165.95,8469.61"/>
        <lane id=":6283419810_1_2" index="2" allow="private emergency authority army vip passenger hov taxi bus coach delivery truck trailer motorcycle evehicle custom1 custom2" speed="39.44" length="2.64" shape="3168.01,8466.11 3167.30,8466.24 3166.81,8466.31 3166.32,8466.37 3165.60,8466.43"/>
    </edge>
    <edge id=":6283419812_0" function="internal">
        <lane id=":6283419812_0_0" index="0" allow="private emergency authority army vip passenger hov taxi bus coach delivery truck trailer motorcycle evehicle custom1 custom2" speed="22.22" length="3.33" shape="2866.69,8556.58 2863.76,8558.17"/>
    </edge>
    <edge id=":6283419812_1" function="internal">
        <lane id=":6283419812_1_0" index="0" allow="private emergency authority army vip passenger hov taxi bus coach delivery truck trailer motorcycle evehicle custom1 custom2" speed="22.22" length="3.36" shape="2865.18,8553.75 2864.30,8554.22 2863.68,8554.50 2863.03,8554.72 2862.07,8554.98"/>
    </edge>
    <edge id=":6283419821_0" function="internal">
        <lane id=":6283419821_0_0" index="0" allow="private emergency authority army vip passenger hov taxi bus coach delivery truck trailer motorcycle evehicle custom1 custom2" speed="22.22" length="3.33" shape="2697.91,8240.46 2697.77,8239.48 2697.64,8238.82 2697.45,8238.17 2697.12,8237.24"/>
    </edge>
    <edge id=":6283419821_1" function="internal">
        <lane id=":6283419821_1_0" index="0" allow="private emergency authority army vip passenger hov taxi bus coach delivery truck trailer motorcycle evehicle custom1 custom2" speed="22.22" length="3.56" shape="2701.20,8239.56 2700.14,8236.16"/>
    </edge>
    <edge id=":6283419822_0" function="internal">
        <lane id=":6283419822_0_0" index="0" allow="private emergency authority army vip passenger hov taxi bus coach delivery truck trailer motorcycle evehicle custom1 custom2" speed="30.83" length="3.09" shape="2383.63,8565.51 2386.56,8564.55"/>
    </edge>
    <edge id=":6283419822_1" function="internal">
        <lane id=":6283419822_1_0" index="0" allow="private emergency authority army vip passenger hov taxi bus coach delivery truck trailer motorcycle evehicle custom1 custom2" speed="39.44" length="2.78" shape="2384.69,8568.53 2387.49,8567.64"/>
        <lane id=":6283419822_1_1" index="1" allow="private emergency authority army vip passenger hov taxi bus coach delivery truck trailer motorcycle evehicle custom1 custom2" speed="39.44" length="2.78" shape="2385.75,8571.55 2388.40,8570.70"/>
        <lane id=":6283419822_1_2" index="2" allow="private emergency authority army vip passenger hov taxi bus coach delivery truck trailer motorcycle evehicle custom1 custom2" speed="39.44" length="2.78" shape="2386.82,8574.56 2389.32,8573.77"/>
    </edge>
    <edge id=":6283419824_0" function="internal">
        <lane id=":6283419824_0_0" index="0" allow="private emergency authority army vip passenger hov taxi bus coach delivery truck trailer motorcycle evehicle custom1 custom2" speed="22.22" length="3.34" shape="2648.34,8446.72 2649.13,8446.13 2649.65,8445.69 2650.12,8445.20 2650.77,8444.45"/>
    </edge>
    <edge id=":6283419824_1" function="internal">
        <lane id=":6283419824_1_0" index="0" allow="private emergency authority army vip passenger hov taxi bus coach delivery truck trailer motorcycle evehicle custom1 custom2" speed="22.22" length="3.77" shape="2650.26,8449.29 2651.15,8448.61 2651.74,8448.13 2652.31,8447.61 2653.12,8446.85"/>
    </edge>
    <edge id=":6283419831_0" function="internal">
        <lane id=":6283419831_0_0" index="0" allow="private emergency authority army vip passenger hov taxi bus coach delivery truck trailer motorcycle evehicle custom1 custom2" speed="30.83" length="3.08" shape="2488.25,8072.19 2485.32,8071.26"/>
    </edge>
    <edge id=":6283419831_1" function="internal">
        <lane id=":6283419831_1_0" index="0" allow="private emergency authority army vip passenger hov taxi bus coach delivery truck trailer motorcycle evehicle custom1 custom2" speed="39.44" length="2.94" shape="2489.19,8069.13 2486.32,8068.22"/>
        <lane id=":6283419831_1_1" index="1" allow="private emergency authority army vip passenger hov taxi bus coach delivery truck trailer motorcycle evehicle custom1 custom2" speed="39.44" length="2.94" shape="2490.13,8066.07 2487.32,8065.18"/>
        <lane id=":6283419831_1_2" index="2" allow="private emergency authority army vip passenger hov taxi bus coach delivery truck trailer motorcycle evehicle custom1 custom2" speed="39.44" length="2.94" shape="2491.06,8063.01 2488.32,8062.14"/>
    </edge>
    <edge id=":6283419839_0" function="internal">
        <lane id=":6283419839_0_0" index="0" allow="private emergency authority army vip passenger hov taxi bus coach delivery truck trailer motorcycle evehicle custom1 custom2" speed="30.83" length="3.03" shape="3515.09,8236.16 3518.06,8236.77"/>
    </edge>
    <edge id=":6283419839_1" function="internal">
        <lane id=":6283419839_1_0" index="0" allow="private emergency authority army vip passenger hov taxi bus coach delivery truck trailer motorcycle evehicle custom1 custom2" speed="39.44" length="3.00" shape="3514.53,8239.41 3517.50,8239.92"/>
        <lane id=":6283419839_1_1" index="1" allow="private emergency authority army vip passenger hov taxi bus coach delivery truck trailer motorcycle evehicle custom1 custom2" speed="39.44" length="3.00" shape="3513.98,8242.56 3516.93,8243.07"/>
        <lane id=":6283419839_1_2" index="2" allow="private emergency authority army vip passenger hov taxi bus coach delivery truck trailer motorcycle evehicle custom1 custom2" speed="39.44" length="3.00" shape="3513.43,8245.71 3516.37,8246.22"/>
    </edge>
    <edge id=":670981010#0-AddedOffRampNode_0" function="internal">
        <lane id=":670981010#0-AddedOffRampNode_0_0" index="0" allow="private emergency authority army vip passenger hov taxi bus coach delivery truck trailer motorcycle evehicle custom1 custom2" speed="22.22" length="8.40" shape="3230.12,8237.25 3227.62,8237.54 3226.00,8238.50 3224.37,8239.46 3221.87,8239.75"/>
        <lane id=":670981010#0-AddedOffRampNode_0_1" index="1" allow="private emergency authority army vip passenger hov taxi bus coach delivery truck trailer motorcycle evehicle custom1 custom2" speed="22.22" length="8.40" shape="3230.12,8237.25 3222.15,8236.56"/>
    </edge>
    <edge id=":670981011#1-AddedOnRampNode_0" function="internal">
        <lane id=":670981011#1-AddedOnRampNode_0_0" index="0" allow="private emergency authority army vip passenger hov taxi bus coach delivery truck trailer motorcycle evehicle custom1 custom2" speed="22.22" length="8.00" shape="3190.08,8429.83 3198.06,8429.19"/>
    </edge>
    <edge id=":670981014#1-AddedOnRampNode_0" function="internal">
        <lane id=":670981014#1-AddedOnRampNode_0_0" index="0" allow="private emergency authority army vip passenger hov taxi bus coach delivery truck trailer motorcycle evehicle custom1 custom2" speed="22.22" length="8.00" shape="2655.18,8154.17 2649.49,8148.55"/>
    </edge>
    <edge id=":7241225304_0" function="internal">
        <lane id=":7241225304_0_0" index="0" allow="private emergency authority army vip passenger hov taxi bus coach delivery truck trailer motorcycle evehicle custom1 custom2" speed="22.22" length="3.00" shape="2755.87,8319.30 2757.21,8316.61"/>
    </edge>
    <edge id=":7241225304_1" function="internal">
        <lane id=":7241225304_1_0" index="0" allow="private emergency authority army vip passenger hov taxi bus coach delivery truck trailer motorcycle evehicle custom1 custom2" speed="22.22" length="3.18" shape="2758.97,8320.90 2759.26,8320.00 2759.48,8319.40 2759.73,8318.80 2760.12,8317.94"/>
    </edge>
    <edge id=":7674592108_0" function="internal">
        <lane id=":7674592108_0_0" index="0" disallow="tram rail_urban rail rail_electric rail_fast ship" speed="6.06" length="9.07" shape="3664.47,6212.77 3663.98,6210.25 3662.80,6208.68 3660.93,6208.08 3658.38,6208.44"/>
    </edge>
    <edge id=":7674592108_1" function="internal">
        <lane id=":7674592108_1_0" index="0" disallow="tram rail_urban rail rail_electric rail_fast ship" speed="27.78" length="14.57" shape="3664.47,6212.77 3663.73,6198.22"/>
        <lane id=":7674592108_1_1" index="1" disallow="tram rail_urban rail rail_electric rail_fast ship" speed="27.78" length="14.57" shape="3667.67,6212.61 3666.93,6198.06"/>
    </edge>
    <edge id=":7674592108_3" function="internal">
        <lane id=":7674592108_3_0" index="0" disallow="tram rail_urban rail rail_electric rail_fast ship" speed="7.56" length="10.33" shape="3657.49,6205.37 3660.32,6204.21 3662.30,6202.63 3663.44,6200.64 3663.73,6198.22"/>
    </edge>
    <edge id=":7674592108_4" function="internal">
        <lane id=":7674592108_4_0" index="0" disallow="tram rail_urban rail rail_electric rail_fast ship" speed="3.65" length="4.67" shape="3657.49,6205.37 3658.87,6205.80 3659.47,6206.46 3659.31,6207.34 3658.38,6208.44"/>
    </edge>
    <edge id=":7674592114_0" function="internal">
        <lane id=":7674592114_0_0" index="0" disallow="tram rail_urban rail rail_electric rail_fast ship" speed="22.22" length="57.26" shape="2352.33,6267.55 2342.02,6268.55 2323.86,6270.92 2305.78,6273.65 2295.70,6275.77"/>
    </edge>
    <edge id=":7674592114_1" function="internal">
        <lane id=":7674592114_1_0" index="0" disallow="tram rail_urban rail rail_electric rail_fast ship" speed="18.05" length="57.56" shape="2352.33,6267.55 2294.77,6267.64"/>
    </edge>
    <edge id=":7674592114_2" function="internal">
        <lane id=":7674592114_2_0" index="0" disallow="tram rail_urban rail rail_electric rail_fast ship" speed="3.65" length="1.44" shape="2352.33,6267.55 2351.14,6266.75"/>
    </edge>
    <edge id=":7674592114_9" function="internal">