<?xml version="1.0" encoding="UTF-8"?>

<!-- generated on 2023-04-12 09:01:11 by Eclipse SUMO netedit Version 1.16.0
<configuration xmlns:xsi="http://www.w3.org/2001/XMLSchema-instance" xsi:noNamespaceSchemaLocation="http://sumo.dlr.de/xsd/netconvertConfiguration.xsd">

    <input>
        <sumo-net-file value="C:\Users\18365\Desktop\毕设\net.net.xml"/>
    </input>

    <output>
        <output-file value="C:\Users\18365\Desktop\毕设\net.net.xml"/>
    </output>

    <processing>
        <geometry.min-radius.fix.railways value="false"/>
        <geometry.max-grade.fix value="false"/>
        <offset.disable-normalization value="true"/>
        <lefthand value="0"/>
    </processing>

    <junctions>
        <no-turnarounds value="true"/>
        <junctions.corner-detail value="5"/>
        <junctions.limit-turn-speed value="5.50"/>
        <rectangular-lane-cut value="0"/>
    </junctions>

    <pedestrian>
        <walkingareas value="0"/>
    </pedestrian>

</configuration>
-->

<net version="1.16" junctionCornerDetail="5" limitTurnSpeed="5.50" xmlns:xsi="http://www.w3.org/2001/XMLSchema-instance" xsi:noNamespaceSchemaLocation="http://sumo.dlr.de/xsd/net_file.xsd">

    <location netOffset="-796648.54,-3391275.01" convBoundary="0.00,0.00,7390.42,10571.08" origBoundary="113.982800,30.617033,114.173608,30.720387" projParameter="+proj=utm +zone=49 +ellps=WGS84 +datum=WGS84 +units=m +no_defs"/>

    <type id="highway.bridleway" priority="1" numLanes="1" speed="2.78" allow="pedestrian" oneway="1" width="2.00"/>
    <type id="highway.bus_guideway" priority="1" numLanes="1" speed="27.78" allow="bus" oneway="1"/>
    <type id="highway.cycleway" priority="1" numLanes="1" speed="5.56" allow="bicycle" oneway="0" width="1.00"/>
    <type id="highway.footway" priority="1" numLanes="1" speed="2.78" allow="pedestrian" oneway="1" width="2.00"/>
    <type id="highway.ford" priority="1" numLanes="1" speed="2.78" allow="army" oneway="0"/>
    <type id="highway.living_street" priority="2" numLanes="1" speed="2.78" disallow="tram rail_urban rail rail_electric rail_fast ship" oneway="0"/>
    <type id="highway.motorway" priority="14" numLanes="2" speed="39.44" allow="private emergency authority army vip passenger hov taxi bus coach delivery truck trailer motorcycle evehicle custom1 custom2" oneway="1"/>
    <type id="highway.motorway_link" priority="9" numLanes="1" speed="22.22" allow="private emergency authority army vip passenger hov taxi bus coach delivery truck trailer motorcycle evehicle custom1 custom2" oneway="1"/>
    <type id="highway.path" priority="1" numLanes="1" speed="5.56" allow="pedestrian bicycle" oneway="0" width="2.00"/>
    <type id="highway.pedestrian" priority="1" numLanes="1" speed="2.78" allow="pedestrian" oneway="1" width="2.00"/>
    <type id="highway.primary" priority="12" numLanes="2" speed="27.78" disallow="tram rail_urban rail rail_electric rail_fast ship" oneway="0"/>
    <type id="highway.primary_link" priority="7" numLanes="1" speed="22.22" disallow="tram rail_urban rail rail_electric rail_fast ship" oneway="0"/>
    <type id="highway.raceway" priority="15" numLanes="2" speed="83.33" allow="vip" oneway="0"/>
    <type id="highway.residential" priority="3" numLanes="1" speed="13.89" disallow="tram rail_urban rail rail_electric rail_fast ship" oneway="0"/>
    <type id="highway.secondary" priority="11" numLanes="1" speed="27.78" disallow="tram rail_urban rail rail_electric rail_fast ship" oneway="0"/>
    <type id="highway.secondary_link" priority="6" numLanes="1" speed="22.22" disallow="tram rail_urban rail rail_electric rail_fast ship" oneway="0"/>
    <type id="highway.service" priority="1" numLanes="1" speed="5.56" allow="pedestrian delivery bicycle" oneway="0"/>
    <type id="highway.stairs" priority="1" numLanes="1" speed="1.39" allow="pedestrian" oneway="1" width="2.00"/>
    <type id="highway.step" priority="1" numLanes="1" speed="1.39" allow="pedestrian" oneway="1" width="2.00"/>
    <type id="highway.steps" priority="1" numLanes="1" speed="1.39" allow="pedestrian" oneway="1" width="2.00"/>
    <type id="highway.tertiary" priority="10" numLanes="1" speed="22.22" disallow="tram rail_urban rail rail_electric rail_fast ship" oneway="0"/>
    <type id="highway.tertiary_link" priority="5" numLanes="1" speed="22.22" disallow="tram rail_urban rail rail_electric rail_fast ship" oneway="0"/>
    <type id="highway.track" priority="1" numLanes="1" speed="5.56" allow="pedestrian motorcycle moped bicycle" oneway="0"/>
    <type id="highway.trunk" priority="13" numLanes="2" speed="27.78" disallow="pedestrian bicycle tram rail_urban rail rail_electric rail_fast ship" oneway="0"/>
    <type id="highway.trunk_link" priority="8" numLanes="1" speed="22.22" disallow="pedestrian bicycle tram rail_urban rail rail_electric rail_fast ship" oneway="0"/>
    <type id="highway.unclassified" priority="4" numLanes="1" speed="13.89" disallow="tram rail_urban rail rail_electric rail_fast ship" oneway="0"/>
    <type id="highway.unsurfaced" priority="1" numLanes="1" speed="8.33" disallow="tram rail_urban rail rail_electric rail_fast ship" oneway="0"/>
    <type id="railway.highspeed" priority="21" numLanes="1" speed="69.44" allow="rail_fast" oneway="1"/>
    <type id="railway.light_rail" priority="19" numLanes="1" speed="27.78" allow="rail_urban" oneway="1"/>
    <type id="railway.preserved" priority="16" numLanes="1" speed="27.78" allow="rail" oneway="1"/>
    <type id="railway.rail" priority="20" numLanes="1" speed="44.44" allow="rail" oneway="1"/>
    <type id="railway.subway" priority="18" numLanes="1" speed="27.78" allow="rail_urban" oneway="1"/>
    <type id="railway.tram" priority="17" numLanes="1" speed="13.89" allow="tram" oneway="1"/>

    <edge id=":3030116931_0" function="internal">
        <lane id=":3030116931_0_0" index="0" disallow="tram rail_urban rail rail_electric rail_fast ship" speed="6.96" length="8.36" shape="3719.56,7021.02 3717.71,7021.74 3716.35,7023.03 3715.47,7024.89 3715.07,7027.30"/>
    </edge>
    <edge id=":3030116931_1" function="internal">
        <lane id=":3030116931_1_0" index="0" disallow="tram rail_urban rail rail_electric rail_fast ship" speed="27.78" length="16.92" shape="3719.56,7021.02 3714.74,7021.93 3711.42,7022.54 3708.23,7023.54 3703.83,7025.62"/>
        <lane id=":3030116931_1_1" index="1" disallow="tram rail_urban rail rail_electric rail_fast ship" speed="27.78" length="16.92" shape="3718.89,7017.89 3713.83,7018.85 3710.33,7019.52 3706.98,7020.59 3702.36,7022.78"/>
    </edge>
    <edge id=":3030116931_3" function="internal">
        <lane id=":3030116931_3_0" index="0" disallow="tram rail_urban rail rail_electric rail_fast ship" speed="27.78" length="13.02" shape="3709.48,7016.15 3710.17,7019.64 3712.20,7021.72 3714.27,7023.81 3715.07,7027.30"/>
        <lane id=":3030116931_3_1" index="1" disallow="tram rail_urban rail rail_electric rail_fast ship" speed="27.78" length="13.02" shape="3706.30,7015.87 3706.98,7019.38 3709.01,7021.49 3711.08,7023.60 3711.88,7027.12"/>
    </edge>
    <edge id=":3030116931_5" function="internal">
        <lane id=":3030116931_5_0" index="0" disallow="tram rail_urban rail rail_electric rail_fast ship" speed="8.13" length="3.12" shape="3706.30,7015.87 3705.88,7018.21 3705.60,7018.90"/>
    </edge>
    <edge id=":3030116931_6" function="internal">
        <lane id=":3030116931_6_0" index="0" disallow="tram rail_urban rail rail_electric rail_fast ship" speed="8.13" length="5.18" shape="3705.60,7018.90 3705.09,7020.15 3703.91,7021.67 3702.36,7022.78"/>
    </edge>
    <edge id=":3030116932_0" function="internal">
        <lane id=":3030116932_0_0" index="0" disallow="tram rail_urban rail rail_electric rail_fast ship" speed="27.78" length="3.22" shape="3601.81,8905.68 3598.59,8905.80"/>
        <lane id=":3030116932_0_1" index="1" disallow="tram rail_urban rail rail_electric rail_fast ship" speed="27.78" length="3.22" shape="3598.61,8905.50 3595.39,8905.62"/>
    </edge>
    <edge id=":3044755288_0" function="internal">
        <lane id=":3044755288_0_0" index="0" disallow="tram rail_urban rail rail_electric rail_fast ship" speed="6.34" length="9.04" shape="3707.98,6472.21 3705.49,6472.44 3703.73,6473.42 3702.70,6475.15 3702.41,6477.64"/>
    </edge>
    <edge id=":3044755288_1" function="internal">
        <lane id=":3044755288_1_0" index="0" disallow="tram rail_urban rail rail_electric rail_fast ship" speed="3.65" length="4.67" shape="3707.98,6472.21 3706.82,6471.35 3706.47,6470.53 3706.91,6469.75 3708.14,6469.01"/>
    </edge>
    <edge id=":3044755288_2" function="internal">
        <lane id=":3044755288_2_0" index="0" disallow="tram rail_urban rail rail_electric rail_fast ship" speed="6.96" length="9.52" shape="3701.77,6463.30 3702.31,6465.68 3703.55,6467.43 3705.50,6468.54 3708.14,6469.01"/>
    </edge>
    <edge id=":3044755288_3" function="internal">
        <lane id=":3044755288_3_0" index="0" disallow="tram rail_urban rail rail_electric rail_fast ship" speed="27.78" length="14.29" shape="3701.77,6463.30 3702.41,6477.64"/>
        <lane id=":3044755288_3_1" index="1" disallow="tram rail_urban rail rail_electric rail_fast ship" speed="27.78" length="14.29" shape="3698.58,6463.51 3699.21,6477.73"/>
    </edge>
    <edge id=":3044755289_0" function="internal">
        <lane id=":3044755289_0_0" index="0" disallow="tram rail_urban rail rail_electric rail_fast ship" speed="3.65" length="4.67" shape="6040.35,6576.50 6041.52,6577.34 6041.89,6578.16 6041.46,6578.94 6040.23,6579.70"/>
    </edge>
    <edge id=":3044755290_0" function="internal">
        <lane id=":3044755290_0_0" index="0" disallow="tram rail_urban rail rail_electric rail_fast ship" speed="19.14" length="16.29" shape="3702.82,7026.14 3698.32,7028.46 3695.03,7029.74 3691.57,7030.24 3686.53,7030.17"/>
        <lane id=":3044755290_0_1" index="1" disallow="tram rail_urban rail rail_electric rail_fast ship" speed="18.19" length="16.29" shape="3701.35,7023.31 3697.28,7025.40 3694.33,7026.57 3691.21,7027.03 3686.67,7026.98"/>
    </edge>
    <edge id=":3044755290_2" function="internal">
        <lane id=":3044755290_2_0" index="0" disallow="tram rail_urban rail rail_electric rail_fast ship" speed="5.77" length="9.16" shape="3701.35,7023.31 3698.80,7024.21 3696.94,7023.93 3695.77,7022.46 3695.29,7019.81"/>
    </edge>
    <edge id=":5072733734_0" function="internal">
        <lane id=":5072733734_0_0" index="0" allow="private emergency authority army vip passenger hov taxi bus coach delivery truck trailer motorcycle evehicle custom1 custom2" speed="30.83" length="50.51" shape="3497.27,8380.32 3505.08,8379.11 3518.55,8376.96 3533.76,8374.06 3546.79,8370.61"/>
    </edge>
    <edge id=":5072733734_1" function="internal">
        <lane id=":5072733734_1_0" index="0" allow="private emergency authority army vip passenger hov taxi bus coach delivery truck trailer motorcycle evehicle custom1 custom2" speed="39.44" length="50.61" shape="3498.09,8383.82 3546.79,8370.61"/>
        <lane id=":5072733734_1_1" index="1" allow="private emergency authority army vip passenger hov taxi bus coach delivery truck trailer motorcycle evehicle custom1 custom2" speed="39.44" length="50.61" shape="3498.98,8386.89 3547.83,8373.64"/>
        <lane id=":5072733734_1_2" index="2" allow="private emergency authority army vip passenger hov taxi bus coach delivery truck trailer motorcycle evehicle custom1 custom2" speed="39.44" length="50.61" shape="3499.87,8389.97 3548.87,8376.67"/>
    </edge>
    <edge id=":5262355532_0" function="internal">
        <lane id=":5262355532_0_0" index="0" disallow="tram rail_urban rail rail_electric rail_fast ship" speed="7.72" length="1.35" shape="3692.08,7019.78 3692.17,7018.43"/>
        <lane id=":5262355532_0_1" index="1" disallow="tram rail_urban rail rail_electric rail_fast ship" speed="6.07" length="1.56" shape="3695.28,7019.64 3695.36,7018.09"/>
    </edge>
    <edge id=":5262355532_4" function="internal">
        <lane id=":5262355532_4_0" index="0" disallow="tram rail_urban rail rail_electric rail_fast ship" speed="7.72" length="7.68" shape="3692.17,7018.43 3692.24,7017.25 3692.95,7015.15 3694.21,7013.49 3696.02,7012.26"/>
    </edge>
    <edge id=":5262355532_5" function="internal">
        <lane id=":5262355532_5_0" index="0" disallow="tram rail_urban rail rail_electric rail_fast ship" speed="6.07" length="3.74" shape="3695.36,7018.09 3695.74,7016.82 3696.43,7015.83 3697.43,7015.13"/>
    </edge>
    <edge id=":5262355532_2" function="internal">
        <lane id=":5262355532_2_0" index="0" disallow="tram rail_urban rail rail_electric rail_fast ship" speed="13.21" length="7.95" shape="3689.11,7013.50 3691.23,7013.58 3692.70,7013.50 3694.10,7013.12 3696.02,7012.26"/>
        <lane id=":5262355532_2_1" index="1" disallow="tram rail_urban rail rail_electric rail_fast ship" speed="14.57" length="7.95" shape="3688.98,7016.69 3691.57,7016.79 3693.37,7016.68 3695.08,7016.19 3697.43,7015.13"/>
    </edge>
    <edge id=":5262355533_0" function="internal">
        <lane id=":5262355533_0_0" index="0" disallow="tram rail_urban rail rail_electric rail_fast ship" speed="7.24" length="10.69" shape="3716.38,6999.04 3716.79,7002.44 3717.82,7004.90 3719.46,7006.44 3721.72,7007.06"/>
    </edge>
    <edge id=":5262355533_1" function="internal">
        <lane id=":5262355533_1_0" index="0" disallow="tram rail_urban rail rail_electric rail_fast ship" speed="27.78" length="18.45" shape="3716.38,6999.04 3715.52,7004.26 3713.33,7007.51 3710.95,7010.76 3709.50,7015.95"/>
        <lane id=":5262355533_1_1" index="1" disallow="tram rail_urban rail rail_electric rail_fast ship" speed="27.78" length="18.45" shape="3713.18,6999.13 3712.32,7004.24 3710.13,7007.41 3707.75,7010.58 3706.31,7015.67"/>
    </edge>
    <edge id=":5262355533_3" function="internal">
        <lane id=":5262355533_3_0" index="0" disallow="tram rail_urban rail rail_electric rail_fast ship" speed="22.53" length="22.05" shape="3699.52,7010.55 3705.37,7008.08 3710.24,7006.95 3715.30,7006.74 3721.72,7007.06"/>
        <lane id=":5262355533_3_1" index="1" disallow="tram rail_urban rail rail_electric rail_fast ship" speed="21.74" length="22.05" shape="3700.92,7013.43 3706.53,7011.00 3710.85,7009.98 3715.36,7009.89 3721.53,7010.25"/>
    </edge>
    <edge id=":5262355533_5" function="internal">
        <lane id=":5262355533_5_0" index="0" disallow="tram rail_urban rail rail_electric rail_fast ship" speed="5.29" length="4.28" shape="3700.92,7013.43 3703.45,7012.50 3705.03,7012.56"/>
    </edge>
    <edge id=":5262355533_6" function="internal">
        <lane id=":5262355533_6_0" index="0" disallow="tram rail_urban rail rail_electric rail_fast ship" speed="5.29" length="3.65" shape="3705.03,7012.56 3705.19,7012.56 3706.15,7013.62 3706.31,7015.67"/>
    </edge>
    <edge id=":6283415776_0" function="internal">
        <lane id=":6283415776_0_0" index="0" allow="private emergency authority army vip passenger hov taxi bus coach delivery truck trailer motorcycle evehicle custom1 custom2" speed="30.83" length="35.86" shape="2260.74,7941.71 2270.94,7946.28 2280.86,7949.52 2289.19,7951.70 2294.64,7953.11"/>
    </edge>
    <edge id=":6283415776_1" function="internal">
        <lane id=":6283415776_1_0" index="0" allow="private emergency authority army vip passenger hov taxi bus coach delivery truck trailer motorcycle evehicle custom1 custom2" speed="39.44" length="35.93" shape="2260.74,7941.71 2293.27,7956.62"/>
        <lane id=":6283415776_1_1" index="1" allow="private emergency authority army vip passenger hov taxi bus coach delivery truck trailer motorcycle evehicle custom1 custom2" speed="39.44" length="35.93" shape="2259.23,7944.53 2291.89,7959.51"/>
        <lane id=":6283415776_1_2" index="2" allow="private emergency authority army vip passenger hov taxi bus coach delivery truck trailer motorcycle evehicle custom1 custom2" speed="39.44" length="35.93" shape="2257.71,7947.35 2290.50,7962.39"/>
    </edge>
    <edge id=":6283415779_0" function="internal">
        <lane id=":6283415779_0_0" index="0" allow="private emergency authority army vip passenger hov taxi bus coach delivery truck trailer motorcycle evehicle custom1 custom2" speed="22.22" length="0.29" shape="2641.42,8051.67 2641.50,8051.70 2641.55,8051.73 2641.60,8051.77 2641.67,8051.82"/>
    </edge>
    <edge id=":6283415782_0" function="internal">
        <lane id=":6283415782_0_0" index="0" allow="private emergency authority army vip passenger hov taxi bus coach delivery truck trailer motorcycle evehicle custom1 custom2" speed="22.22" length="16.08" shape="2758.81,8174.91 2760.73,8178.31 2763.02,8181.73 2765.44,8185.08 2767.71,8188.27"/>
    </edge>
    <edge id=":6283415782_1" function="internal">
        <lane id=":6283415782_1_0" index="0" allow="private emergency authority army vip passenger hov taxi bus coach delivery truck trailer motorcycle evehicle custom1 custom2" speed="22.22" length="16.08" shape="2758.81,8174.91 2760.39,8178.49 2761.86,8182.34 2763.24,8186.22 2764.57,8189.91"/>
    </edge>
    <edge id=":6283415784_0" function="internal">
        <lane id=":6283415784_0_0" index="0" allow="private emergency authority army vip passenger hov taxi bus coach delivery truck trailer motorcycle evehicle custom1 custom2" speed="22.22" length="0.10" shape="2798.50,8346.40 2798.50,8346.40"/>
    </edge>
    <edge id=":6283419786_0" function="internal">
        <lane id=":6283419786_0_0" index="0" allow="private emergency authority army vip passenger hov taxi bus coach delivery truck trailer motorcycle evehicle custom1 custom2" speed="22.22" length="16.92" shape="2769.18,8452.85 2759.16,8466.49"/>
    </edge>
    <edge id=":6283419786_1" function="internal">
        <lane id=":6283419786_1_0" index="0" allow="private emergency authority army vip passenger hov taxi bus coach delivery truck trailer motorcycle evehicle custom1 custom2" speed="22.22" length="16.92" shape="2766.11,8451.12 2764.64,8454.91 2763.06,8459.05 2761.27,8463.07 2759.16,8466.49"/>
    </edge>
    <edge id=":6283419793_0" function="internal">
        <lane id=":6283419793_0_0" index="0" allow="private emergency authority army vip passenger hov taxi bus coach delivery truck trailer motorcycle evehicle custom1 custom2" speed="30.83" length="31.86" shape="2237.80,8654.19 2232.96,8655.43 2225.97,8657.23 2217.30,8659.89 2207.44,8663.71"/>
    </edge>
    <edge id=":6283419793_1" function="internal">
        <lane id=":6283419793_1_0" index="0" allow="private emergency authority army vip passenger hov taxi bus coach delivery truck trailer motorcycle evehicle custom1 custom2" speed="39.44" length="31.84" shape="2236.51,8650.71 2207.44,8663.71"/>
        <lane id=":6283419793_1_1" index="1" allow="private emergency authority army vip passenger hov taxi bus coach delivery truck trailer motorcycle evehicle custom1 custom2" speed="39.44" length="31.84" shape="2235.22,8647.78 2206.15,8660.78"/>
        <lane id=":6283419793_1_2" index="2" allow="private emergency authority army vip passenger hov taxi bus coach delivery truck trailer motorcycle evehicle custom1 custom2" speed="39.44" length="31.84" shape="2233.92,8644.86 2204.87,8657.85"/>
    </edge>
    <edge id=":6283419794_0" function="internal">
        <lane id=":6283419794_0_0" index="0" allow="private emergency authority army vip passenger hov taxi bus coach delivery truck trailer motorcycle evehicle custom1 custom2" speed="30.83" length="33.08" shape="3393.11,8245.84 3382.43,8244.38 3372.97,8243.69 3365.34,8243.44 3360.16,8243.28"/>
    </edge>
    <edge id=":6283419794_1" function="internal">
        <lane id=":6283419794_1_0" index="0" allow="private emergency authority army vip passenger hov taxi bus coach delivery truck trailer motorcycle evehicle custom1 custom2" speed="39.44" length="33.06" shape="3393.11,8245.84 3360.62,8239.63"/>
        <lane id=":6283419794_1_1" index="1" allow="private emergency authority army vip passenger hov taxi bus coach delivery truck trailer motorcycle evehicle custom1 custom2" speed="39.44" length="33.06" shape="3393.67,8242.69 3361.20,8236.49"/>
        <lane id=":6283419794_1_2" index="2" allow="private emergency authority army vip passenger hov taxi bus coach delivery truck trailer motorcycle evehicle custom1 custom2" speed="39.44" length="33.06" shape="3394.23,8239.54 3361.78,8233.34"/>
    </edge>
    <edge id=":6283419795_0" function="internal">
        <lane id=":6283419795_0_0" index="0" allow="private emergency authority army vip passenger hov taxi bus coach delivery truck trailer motorcycle evehicle custom1 custom2" speed="22.22" length="22.73" shape="3128.23,8228.47 3123.34,8228.90 3117.08,8230.24 3110.85,8231.85 3106.03,8233.09"/>
    </edge>
    <edge id=":6283419795_1" function="internal">
        <lane id=":6283419795_1_0" index="0" allow="private emergency authority army vip passenger hov taxi bus coach delivery truck trailer motorcycle evehicle custom1 custom2" speed="22.22" length="22.74" shape="3128.23,8228.47 3123.28,8228.48 3116.88,8228.84 3110.48,8229.32 3105.53,8229.69"/>
    </edge>
    <edge id=":6283419803_0" function="internal">
        <lane id=":6283419803_0_0" index="0" allow="private emergency authority army vip passenger hov taxi bus coach delivery truck trailer motorcycle evehicle custom1 custom2" speed="22.22" length="21.93" shape="3074.75,8423.06 3079.36,8424.57 3085.22,8426.49 3091.11,8428.16 3095.84,8428.91"/>
    </edge>
    <edge id=":6283419803_1" function="internal">
        <lane id=":6283419803_1_0" index="0" allow="private emergency authority army vip passenger hov taxi bus coach delivery truck trailer motorcycle evehicle custom1 custom2" speed="22.22" length="21.94" shape="3074.05,8426.43 3078.84,8427.06 3084.93,8427.87 3091.02,8428.57 3095.84,8428.91"/>
    </edge>
    <edge id=":6283419810_0" function="internal">
        <lane id=":6283419810_0_0" index="0" allow="private emergency authority army vip passenger hov taxi bus coach delivery truck trailer motorcycle evehicle custom1 custom2" speed="30.83" length="71.43" shape="3171.82,8471.94 3101.04,8481.50"/>
    </edge>
    <edge id=":6283419810_1" function="internal">
        <lane id=":6283419810_1_0" index="0" allow="private emergency authority army vip passenger hov taxi bus coach delivery truck trailer motorcycle evehicle custom1 custom2" speed="39.44" length="71.20" shape="3171.82,8471.94 3156.56,8473.81 3136.27,8475.47 3115.94,8476.86 3100.58,8477.92"/>
        <lane id=":6283419810_1_1" index="1" allow="private emergency authority army vip passenger hov taxi bus coach delivery truck trailer motorcycle evehicle custom1 custom2" speed="39.44" length="71.20" shape="3171.27,8468.79 3156.05,8470.65 3135.87,8472.30 3115.64,8473.68 3100.33,8474.73"/>
        <lane id=":6283419810_1_2" index="2" allow="private emergency authority army vip passenger hov taxi bus coach delivery truck trailer motorcycle evehicle custom1 custom2" speed="39.44" length="71.20" shape="3170.71,8465.63 3155.55,8467.49 3135.46,8469.13 3115.35,8470.49 3100.08,8471.54"/>
    </edge>
    <edge id=":6283419812_0" function="internal">
        <lane id=":6283419812_0_0" index="0" allow="private emergency authority army vip passenger hov taxi bus coach delivery truck trailer motorcycle evehicle custom1 custom2" speed="22.22" length="14.45" shape="2865.20,8553.75 2852.78,8561.15"/>
    </edge>
    <edge id=":6283419812_1" function="internal">
        <lane id=":6283419812_1_0" index="0" allow="private emergency authority army vip passenger hov taxi bus coach delivery truck trailer motorcycle evehicle custom1 custom2" speed="22.22" length="14.46" shape="2865.20,8553.75 2861.85,8555.20 2858.44,8556.19 2854.95,8556.99 2851.37,8557.85"/>
    </edge>
    <edge id=":6283419818_0" function="internal">
        <lane id=":6283419818_0_0" index="0" allow="private emergency authority army vip passenger hov taxi bus coach delivery truck trailer motorcycle evehicle custom1 custom2" speed="22.22" length="0.20" shape="2608.72,8434.90 2608.74,8434.85 2608.76,8434.81 2608.78,8434.78 2608.82,8434.73"/>
    </edge>
    <edge id=":6283419821_0" function="internal">
        <lane id=":6283419821_0_0" index="0" allow="private emergency authority army vip passenger hov taxi bus coach delivery truck trailer motorcycle evehicle custom1 custom2" speed="22.22" length="18.30" shape="2701.65,8254.26 2701.52,8249.97 2701.40,8245.06 2701.02,8240.20 2700.11,8236.07"/>
    </edge>
    <edge id=":6283419821_1" function="internal">
        <lane id=":6283419821_1_0" index="0" allow="private emergency authority army vip passenger hov taxi bus coach delivery truck trailer motorcycle evehicle custom1 custom2" speed="22.22" length="18.31" shape="2705.10,8253.69 2700.11,8236.07"/>
    </edge>
    <edge id=":6283419822_0" function="internal">
        <lane id=":6283419822_0_0" index="0" allow="private emergency authority army vip passenger hov taxi bus coach delivery truck trailer motorcycle evehicle custom1 custom2" speed="30.83" length="8.42" shape="2425.83,8554.05 2433.67,8550.97"/>
    </edge>
    <edge id=":6283419822_1" function="internal">
        <lane id=":6283419822_1_0" index="0" allow="private emergency authority army vip passenger hov taxi bus coach delivery truck trailer motorcycle evehicle custom1 custom2" speed="39.44" length="9.07" shape="2425.83,8554.05 2428.45,8553.65 2430.34,8554.16 2432.25,8554.72 2434.92,8554.50"/>
        <lane id=":6283419822_1_1" index="1" allow="private emergency authority army vip passenger hov taxi bus coach delivery truck trailer motorcycle evehicle custom1 custom2" speed="39.44" length="9.07" shape="2426.90,8557.06 2429.45,8556.69 2431.30,8557.21 2433.17,8557.79 2435.77,8557.58"/>
        <lane id=":6283419822_1_2" index="2" allow="private emergency authority army vip passenger hov taxi bus coach delivery truck trailer motorcycle evehicle custom1 custom2" speed="39.44" length="9.07" shape="2427.96,8560.08 2430.45,8559.73 2432.26,8560.27 2434.08,8560.86 2436.63,8560.66"/>
    </edge>
    <edge id=":6283419824_0" function="internal">
        <lane id=":6283419824_0_0" index="0" allow="private emergency authority army vip passenger hov taxi bus coach delivery truck trailer motorcycle evehicle custom1 custom2" speed="22.22" length="23.26" shape="2650.22,8449.32 2653.74,8445.78 2657.81,8440.61 2661.71,8435.25 2664.68,8431.16"/>
    </edge>
    <edge id=":6283419824_1" function="internal">
        <lane id=":6283419824_1_0" index="0" allow="private emergency authority army vip passenger hov taxi bus coach delivery truck trailer motorcycle evehicle custom1 custom2" speed="22.22" length="23.28" shape="2650.22,8449.32 2654.06,8446.06 2658.87,8441.55 2663.61,8436.96 2667.23,8433.45"/>
    </edge>
    <edge id=":6283419831_0" function="internal">
        <lane id=":6283419831_0_0" index="0" allow="private emergency authority army vip passenger hov taxi bus coach delivery truck trailer motorcycle evehicle custom1 custom2" speed="30.83" length="33.21" shape="2562.89,8095.48 2558.20,8093.27 2551.13,8090.28 2542.23,8086.85 2532.02,8083.29"/>
    </edge>
    <edge id=":6283419831_1" function="internal">
        <lane id=":6283419831_1_0" index="0" allow="private emergency authority army vip passenger hov taxi bus coach delivery truck trailer motorcycle evehicle custom1 custom2" speed="39.44" length="33.19" shape="2564.10,8092.08 2532.02,8083.29"/>
        <lane id=":6283419831_1_1" index="1" allow="private emergency authority army vip passenger hov taxi bus coach delivery truck trailer motorcycle evehicle custom1 custom2" speed="39.44" length="33.19" shape="2565.04,8089.02 2533.02,8080.25"/>
        <lane id=":6283419831_1_2" index="2" allow="private emergency authority army vip passenger hov taxi bus coach delivery truck trailer motorcycle evehicle custom1 custom2" speed="39.44" length="33.19" shape="2565.97,8085.96 2534.03,8077.21"/>
    </edge>
    <edge id=":6283419832_0" function="internal">
        <lane id=":6283419832_0_0" index="0" allow="private emergency authority army vip passenger hov taxi bus coach delivery truck trailer motorcycle evehicle custom1 custom2" speed="22.22" length="0.10" shape="2840.09,8183.72 2840.09,8183.72"/>
    </edge>
    <edge id=":6283419839_0" function="internal">
        <lane id=":6283419839_0_0" index="0" allow="private emergency authority army vip passenger hov taxi bus coach delivery truck trailer motorcycle evehicle custom1 custom2" speed="30.83" length="34.07" shape="3453.80,8225.16 3458.88,8226.75 3466.49,8229.14 3475.96,8231.78 3486.63,8234.16"/>
    </edge>
    <edge id=":6283419839_1" function="internal">
        <lane id=":6283419839_1_0" index="0" allow="private emergency authority army vip passenger hov taxi bus coach delivery truck trailer motorcycle evehicle custom1 custom2" speed="39.44" length="34.05" shape="3452.99,8228.68 3486.63,8234.16"/>
        <lane id=":6283419839_1_1" index="1" allow="private emergency authority army vip passenger hov taxi bus coach delivery truck trailer motorcycle evehicle custom1 custom2" speed="39.44" length="34.05" shape="3452.44,8231.84 3486.04,8237.31"/>
        <lane id=":6283419839_1_2" index="2" allow="private emergency authority army vip passenger hov taxi bus coach delivery truck trailer motorcycle evehicle custom1 custom2" speed="39.44" length="34.05" shape="3451.89,8234.99 3485.45,8240.45"/>
    </edge>
    <edge id=":7241225291_0" function="internal">
        <lane id=":7241225291_0_0" index="0" allow="private emergency authority army vip passenger hov taxi bus coach delivery truck trailer motorcycle evehicle custom1 custom2" speed="22.22" length="0.10" shape="2685.57,8416.04 2685.57,8416.04"/>
    </edge>
    <edge id=":7241225304_0" function="internal">