<?xml version="1.0" encoding="UTF-8"?>

<!-- generated on 2023-04-12 17:04:37 by Eclipse SUMO netedit Version 1.16.0
-->

<routes xmlns:xsi="http://www.w3.org/2001/XMLSchema-instance" xsi:noNamespaceSchemaLocation="http://sumo.dlr.de/xsd/routes_file.xsd">
    <!-- Routes -->
    <route id="r_0" edges="N2S#5 821948824#0 821948824#1 821948824#2 821948824#4 821948824#6 821948824#7 544372381#1 544372381#2 544372381#3 544372381#4 544372381#5 544372381#6 544372381#7 544372381#8-AddedOnRampEdge 544372381#8 544372381#9 544372381#10-AddedOnRampEdge 544372381#10 299070353#2 299070353#2-AddedOffRampEdge 299070353#3 299070353#4-AddedOnRampEdge 299070353#4 299070353#5 299070353#6 299070353#7 299070353#8 299070353#9 -821948825#4 -821948825#2 -821948825#1 N2S#3 N2S#4"/>
    <!-- Vehicles, persons and containers (sorted by depart) -->
    <flow id="f_0" begin="0.00" route="r_0" end="0.00" number="50"/>
</routes>
