<routes>

        <vType id = 'ego_car' vclass="evehicle" emissionClass="Energy/unknown" tau="1" accel="3.0" decel="3.0" color="#00FFFF" sigma="0.2" length="4.90" minGap="1" maxSpeed="20" guiShape="passenger">
            <param key="has.battery.device" value="true"/>
            <param key="maximumBatteryCapacity" value="38000"/> 
            <param key="maximumPower" value="200000"/>
            <param key="vehicleMass" value="1830"/>
            <param key="frontSurfaceArea" value="2.6"/>
            <param key="airDragCoefficient" value="0.35"/>
            <param key="internalMomentOfInertia" value="0.01"/>
            <param key="radialDragCoefficient" value="0.1"/>
            <param key="rollDragCoefficient" value="0.01"/>
            <param key="constantPowerIntake" value="100"/>
            <param key="propulsionEfficiency" value="0.9"/>
            <param key="recuperationEfficiency" value="0.9"/>
            <param key="stoppingThreshold" value="0.1"/>
        </vType>
        
        <route id="W2E" edges="WE0 WE1"/>
        <route id="E2W" edges="EW0 EW1"/>
   <vehicle id="E2W_1" type="ego_car" route="E2W" depart="15" departSpeed="10" departLane="best"/>
   <vehicle id="E2W_2" type="ego_car" route="E2W" depart="93" departSpeed="10" departLane="best"/>
   <vehicle id="E2W_3" type="ego_car" route="E2W" depart="118" departSpeed="10" departLane="best"/>
   <vehicle id="W2E_4" type="ego_car" route="W2E" depart="155" departSpeed="10" departLane="best"/>
   <vehicle id="W2E_5" type="ego_car" route="W2E" depart="187" departSpeed="10" departLane="best"/>
   <vehicle id="W2E_6" type="ego_car" route="W2E" depart="187" departSpeed="10" departLane="best"/>
   <vehicle id="W2E_7" type="ego_car" route="W2E" depart="220" departSpeed="10" departLane="best"/>
   <vehicle id="E2W_8" type="ego_car" route="E2W" depart="222" departSpeed="10" departLane="best"/>
   <vehicle id="W2E_9" type="ego_car" route="W2E" depart="224" departSpeed="10" departLane="best"/>
   <vehicle id="E2W_10" type="ego_car" route="E2W" depart="225" departSpeed="10" departLane="best"/>
   <vehicle id="E2W_11" type="ego_car" route="E2W" depart="238" departSpeed="10" departLane="best"/>
   <vehicle id="W2E_12" type="ego_car" route="W2E" depart="239" departSpeed="10" departLane="best"/>
   <vehicle id="E2W_13" type="ego_car" route="E2W" depart="243" departSpeed="10" departLane="best"/>
   <vehicle id="E2W_14" type="ego_car" route="E2W" depart="252" departSpeed="10" departLane="best"/>
   <vehicle id="E2W_15" type="ego_car" route="E2W" depart="263" departSpeed="10" departLane="best"/>
   <vehicle id="W2E_16" type="ego_car" route="W2E" depart="264" departSpeed="10" departLane="best"/>
   <vehicle id="E2W_17" type="ego_car" route="E2W" depart="269" departSpeed="10" departLane="best"/>
   <vehicle id="E2W_18" type="ego_car" route="E2W" depart="269" departSpeed="10" departLane="best"/>
   <vehicle id="W2E_19" type="ego_car" route="W2E" depart="283" departSpeed="10" departLane="best"/>
   <vehicle id="E2W_20" type="ego_car" route="E2W" depart="283" departSpeed="10" departLane="best"/>
   <vehicle id="E2W_21" type="ego_car" route="E2W" depart="293" departSpeed="10" departLane="best"/>
   <vehicle id="E2W_22" type="ego_car" route="E2W" depart="302" departSpeed="10" departLane="best"/>
   <vehicle id="E2W_23" type="ego_car" route="E2W" depart="304" departSpeed="10" departLane="best"/>
   <vehicle id="E2W_24" type="ego_car" route="E2W" depart="306" departSpeed="10" departLane="best"/>
   <vehicle id="E2W_25" type="ego_car" route="E2W" depart="318" departSpeed="10" departLane="best"/>
   <vehicle id="E2W_26" type="ego_car" route="E2W" depart="318" departSpeed="10" departLane="best"/>
   <vehicle id="W2E_27" type="ego_car" route="W2E" depart="320" departSpeed="10" departLane="best"/>
   <vehicle id="E2W_28" type="ego_car" route="E2W" depart="339" departSpeed="10" departLane="best"/>
   <vehicle id="E2W_29" type="ego_car" route="E2W" depart="344" departSpeed="10" departLane="best"/>
   <vehicle id="E2W_30" type="ego_car" route="E2W" depart="357" departSpeed="10" departLane="best"/>
   <vehicle id="W2E_31" type="ego_car" route="W2E" depart="376" departSpeed="10" departLane="best"/>
   <vehicle id="E2W_32" type="ego_car" route="E2W" depart="389" departSpeed="10" departLane="best"/>
   <vehicle id="E2W_33" type="ego_car" route="E2W" depart="394" departSpeed="10" departLane="best"/>
   <vehicle id="E2W_34" type="ego_car" route="E2W" depart="398" departSpeed="10" departLane="best"/>
   <vehicle id="E2W_35" type="ego_car" route="E2W" depart="400" departSpeed="10" departLane="best"/>
   <vehicle id="E2W_36" type="ego_car" route="E2W" depart="400" departSpeed="10" departLane="best"/>
   <vehicle id="E2W_37" type="ego_car" route="E2W" depart="401" departSpeed="10" departLane="best"/>
   <vehicle id="E2W_38" type="ego_car" route="E2W" depart="409" departSpeed="10" departLane="best"/>
   <vehicle id="E2W_39" type="ego_car" route="E2W" depart="413" departSpeed="10" departLane="best"/>
   <vehicle id="W2E_40" type="ego_car" route="W2E" depart="414" departSpeed="10" departLane="best"/>
   <vehicle id="W2E_41" type="ego_car" route="W2E" depart="419" departSpeed="10" departLane="best"/>
   <vehicle id="E2W_42" type="ego_car" route="E2W" depart="424" departSpeed="10" departLane="best"/>
   <vehicle id="W2E_43" type="ego_car" route="W2E" depart="435" departSpeed="10" departLane="best"/>
   <vehicle id="W2E_44" type="ego_car" route="W2E" depart="442" departSpeed="10" departLane="best"/>
   <vehicle id="W2E_45" type="ego_car" route="W2E" depart="442" departSpeed="10" departLane="best"/>
   <vehicle id="W2E_46" type="ego_car" route="W2E" depart="465" departSpeed="10" departLane="best"/>
   <vehicle id="W2E_47" type="ego_car" route="W2E" depart="475" departSpeed="10" departLane="best"/>
   <vehicle id="W2E_48" type="ego_car" route="W2E" depart="493" departSpeed="10" departLane="best"/>
   <vehicle id="E2W_49" type="ego_car" route="E2W" depart="493" departSpeed="10" departLane="best"/>
   <vehicle id="W2E_50" type="ego_car" route="W2E" depart="495" departSpeed="10" departLane="best"/>
   <vehicle id="E2W_51" type="ego_car" route="E2W" depart="512" departSpeed="10" departLane="best"/>
   <vehicle id="E2W_52" type="ego_car" route="E2W" depart="515" departSpeed="10" departLane="best"/>
   <vehicle id="W2E_53" type="ego_car" route="W2E" depart="516" departSpeed="10" departLane="best"/>
   <vehicle id="E2W_54" type="ego_car" route="E2W" depart="532" departSpeed="10" departLane="best"/>
   <vehicle id="E2W_55" type="ego_car" route="E2W" depart="533" departSpeed="10" departLane="best"/>
   <vehicle id="W2E_56" type="ego_car" route="W2E" depart="540" departSpeed="10" departLane="best"/>
   <vehicle id="W2E_57" type="ego_car" route="W2E" depart="542" departSpeed="10" departLane="best"/>
   <vehicle id="W2E_58" type="ego_car" route="W2E" depart="547" departSpeed="10" departLane="best"/>
   <vehicle id="W2E_59" type="ego_car" route="W2E" depart="547" departSpeed="10" departLane="best"/>
   <vehicle id="W2E_60" type="ego_car" route="W2E" depart="547" departSpeed="10" departLane="best"/>
   <vehicle id="E2W_61" type="ego_car" route="E2W" depart="557" departSpeed="10" departLane="best"/>
   <vehicle id="E2W_62" type="ego_car" route="E2W" depart="577" departSpeed="10" departLane="best"/>
   <vehicle id="W2E_63" type="ego_car" route="W2E" depart="595" departSpeed="10" departLane="best"/>
   <vehicle id="W2E_64" type="ego_car" route="W2E" depart="603" departSpeed="10" departLane="best"/>
   <vehicle id="E2W_65" type="ego_car" route="E2W" depart="607" departSpeed="10" departLane="best"/>
   <vehicle id="E2W_66" type="ego_car" route="E2W" depart="612" departSpeed="10" departLane="best"/>
   <vehicle id="W2E_67" type="ego_car" route="W2E" depart="622" departSpeed="10" departLane="best"/>
   <vehicle id="W2E_68" type="ego_car" route="W2E" depart="629" departSpeed="10" departLane="best"/>
   <vehicle id="E2W_69" type="ego_car" route="E2W" depart="649" departSpeed="10" departLane="best"/>
   <vehicle id="W2E_70" type="ego_car" route="W2E" depart="664" departSpeed="10" departLane="best"/>
   <vehicle id="E2W_71" type="ego_car" route="E2W" depart="664" departSpeed="10" departLane="best"/>
   <vehicle id="W2E_72" type="ego_car" route="W2E" depart="671" departSpeed="10" departLane="best"/>
   <vehicle id="W2E_73" type="ego_car" route="W2E" depart="681" departSpeed="10" departLane="best"/>
   <vehicle id="E2W_74" type="ego_car" route="E2W" depart="698" departSpeed="10" departLane="best"/>
   <vehicle id="W2E_75" type="ego_car" route="W2E" depart="700" departSpeed="10" departLane="best"/>
   <vehicle id="E2W_76" type="ego_car" route="E2W" depart="704" departSpeed="10" departLane="best"/>
   <vehicle id="W2E_77" type="ego_car" route="W2E" depart="712" departSpeed="10" departLane="best"/>
   <vehicle id="W2E_78" type="ego_car" route="W2E" depart="727" departSpeed="10" departLane="best"/>
   <vehicle id="E2W_79" type="ego_car" route="E2W" depart="729" departSpeed="10" departLane="best"/>
   <vehicle id="W2E_80" type="ego_car" route="W2E" depart="730" departSpeed="10" departLane="best"/>
   <vehicle id="E2W_81" type="ego_car" route="E2W" depart="740" departSpeed="10" departLane="best"/>
   <vehicle id="E2W_82" type="ego_car" route="E2W" depart="742" departSpeed="10" departLane="best"/>
   <vehicle id="E2W_83" type="ego_car" route="E2W" depart="747" departSpeed="10" departLane="best"/>
   <vehicle id="E2W_84" type="ego_car" route="E2W" depart="760" departSpeed="10" departLane="best"/>
   <vehicle id="E2W_85" type="ego_car" route="E2W" depart="770" departSpeed="10" departLane="best"/>
   <vehicle id="W2E_86" type="ego_car" route="W2E" depart="771" departSpeed="10" departLane="best"/>
   <vehicle id="W2E_87" type="ego_car" route="W2E" depart="782" departSpeed="10" departLane="best"/>
   <vehicle id="E2W_88" type="ego_car" route="E2W" depart="783" departSpeed="10" departLane="best"/>
   <vehicle id="E2W_89" type="ego_car" route="E2W" depart="809" departSpeed="10" departLane="best"/>
   <vehicle id="W2E_90" type="ego_car" route="W2E" depart="811" departSpeed="10" departLane="best"/>
   <vehicle id="E2W_91" type="ego_car" route="E2W" depart="811" departSpeed="10" departLane="best"/>
   <vehicle id="E2W_92" type="ego_car" route="E2W" depart="823" departSpeed="10" departLane="best"/>
   <vehicle id="W2E_93" type="ego_car" route="W2E" depart="834" departSpeed="10" departLane="best"/>
   <vehicle id="W2E_94" type="ego_car" route="W2E" depart="834" departSpeed="10" departLane="best"/>
   <vehicle id="E2W_95" type="ego_car" route="E2W" depart="841" departSpeed="10" departLane="best"/>
   <vehicle id="E2W_96" type="ego_car" route="E2W" depart="853" departSpeed="10" departLane="best"/>
   <vehicle id="E2W_97" type="ego_car" route="E2W" depart="859" departSpeed="10" departLane="best"/>
   <vehicle id="E2W_98" type="ego_car" route="E2W" depart="859" departSpeed="10" departLane="best"/>
   <vehicle id="E2W_99" type="ego_car" route="E2W" depart="860" departSpeed="10" departLane="best"/>
   <vehicle id="E2W_100" type="ego_car" route="E2W" depart="863" departSpeed="10" departLane="best"/>
   <vehicle id="W2E_101" type="ego_car" route="W2E" depart="867" departSpeed="10" departLane="best"/>
   <vehicle id="W2E_102" type="ego_car" route="W2E" depart="898" departSpeed="10" departLane="best"/>
   <vehicle id="W2E_103" type="ego_car" route="W2E" depart="898" departSpeed="10" departLane="best"/>
   <vehicle id="E2W_104" type="ego_car" route="E2W" depart="898" departSpeed="10" departLane="best"/>
   <vehicle id="W2E_105" type="ego_car" route="W2E" depart="908" departSpeed="10" departLane="best"/>
   <vehicle id="E2W_106" type="ego_car" route="E2W" depart="915" departSpeed="10" departLane="best"/>
   <vehicle id="W2E_107" type="ego_car" route="W2E" depart="919" departSpeed="10" departLane="best"/>
   <vehicle id="E2W_108" type="ego_car" route="E2W" depart="923" departSpeed="10" departLane="best"/>
   <vehicle id="W2E_109" type="ego_car" route="W2E" depart="931" departSpeed="10" departLane="best"/>
   <vehicle id="E2W_110" type="ego_car" route="E2W" depart="935" departSpeed="10" departLane="best"/>
   <vehicle id="E2W_111" type="ego_car" route="E2W" depart="939" departSpeed="10" departLane="best"/>
   <vehicle id="E2W_112" type="ego_car" route="E2W" depart="941" departSpeed="10" departLane="best"/>
   <vehicle id="E2W_113" type="ego_car" route="E2W" depart="944" departSpeed="10" departLane="best"/>
   <vehicle id="W2E_114" type="ego_car" route="W2E" depart="950" departSpeed="10" departLane="best"/>
   <vehicle id="E2W_115" type="ego_car" route="E2W" depart="951" departSpeed="10" departLane="best"/>
   <vehicle id="E2W_116" type="ego_car" route="E2W" depart="963" departSpeed="10" departLane="best"/>
   <vehicle id="W2E_117" type="ego_car" route="W2E" depart="971" departSpeed="10" departLane="best"/>
   <vehicle id="E2W_118" type="ego_car" route="E2W" depart="972" departSpeed="10" departLane="best"/>
   <vehicle id="W2E_119" type="ego_car" route="W2E" depart="981" departSpeed="10" departLane="best"/>
   <vehicle id="E2W_120" type="ego_car" route="E2W" depart="985" departSpeed="10" departLane="best"/>
   <vehicle id="E2W_121" type="ego_car" route="E2W" depart="987" departSpeed="10" departLane="best"/>
   <vehicle id="E2W_122" type="ego_car" route="E2W" depart="989" departSpeed="10" departLane="best"/>
   <vehicle id="W2E_123" type="ego_car" route="W2E" depart="997" departSpeed="10" departLane="best"/>
   <vehicle id="W2E_124" type="ego_car" route="W2E" depart="1005" departSpeed="10" departLane="best"/>
   <vehicle id="W2E_125" type="ego_car" route="W2E" depart="1007" departSpeed="10" departLane="best"/>
   <vehicle id="W2E_126" type="ego_car" route="W2E" depart="1008" departSpeed="10" departLane="best"/>
   <vehicle id="W2E_127" type="ego_car" route="W2E" depart="1022" departSpeed="10" departLane="best"/>
   <vehicle id="E2W_128" type="ego_car" route="E2W" depart="1032" departSpeed="10" departLane="best"/>
   <vehicle id="E2W_129" type="ego_car" route="E2W" depart="1035" departSpeed="10" departLane="best"/>
   <vehicle id="E2W_130" type="ego_car" route="E2W" depart="1040" departSpeed="10" departLane="best"/>
   <vehicle id="E2W_131" type="ego_car" route="E2W" depart="1052" departSpeed="10" departLane="best"/>
   <vehicle id="E2W_132" type="ego_car" route="E2W" depart="1053" departSpeed="10" departLane="best"/>
   <vehicle id="W2E_133" type="ego_car" route="W2E" depart="1058" departSpeed="10" departLane="best"/>
   <vehicle id="E2W_134" type="ego_car" route="E2W" depart="1060" departSpeed="10" departLane="best"/>
   <vehicle id="W2E_135" type="ego_car" route="W2E" depart="1062" departSpeed="10" departLane="best"/>
   <vehicle id="E2W_136" type="ego_car" route="E2W" depart="1063" departSpeed="10" departLane="best"/>
   <vehicle id="W2E_137" type="ego_car" route="W2E" depart="1065" departSpeed="10" departLane="best"/>
   <vehicle id="E2W_138" type="ego_car" route="E2W" depart="1070" departSpeed="10" departLane="best"/>
   <vehicle id="E2W_139" type="ego_car" route="E2W" depart="1071" departSpeed="10" departLane="best"/>
   <vehicle id="E2W_140" type="ego_car" route="E2W" depart="1084" departSpeed="10" departLane="best"/>
   <vehicle id="W2E_141" type="ego_car" route="W2E" depart="1088" departSpeed="10" departLane="best"/>
   <vehicle id="E2W_142" type="ego_car" route="E2W" depart="1091" departSpeed="10" departLane="best"/>
   <vehicle id="E2W_143" type="ego_car" route="E2W" depart="1092" departSpeed="10" departLane="best"/>
   <vehicle id="W2E_144" type="ego_car" route="W2E" depart="1093" departSpeed="10" departLane="best"/>
   <vehicle id="E2W_145" type="ego_car" route="E2W" depart="1094" departSpeed="10" departLane="best"/>
   <vehicle id="E2W_146" type="ego_car" route="E2W" depart="1099" departSpeed="10" departLane="best"/>
   <vehicle id="W2E_147" type="ego_car" route="W2E" depart="1100" departSpeed="10" departLane="best"/>
   <vehicle id="W2E_148" type="ego_car" route="W2E" depart="1101" departSpeed="10" departLane="best"/>
   <vehicle id="W2E_149" type="ego_car" route="W2E" depart="1104" departSpeed="10" departLane="best"/>
   <vehicle id="W2E_150" type="ego_car" route="W2E" depart="1111" departSpeed="10" departLane="best"/>
   <vehicle id="E2W_151" type="ego_car" route="E2W" depart="1115" departSpeed="10" departLane="best"/>
   <vehicle id="E2W_152" type="ego_car" route="E2W" depart="1117" departSpeed="10" departLane="best"/>
   <vehicle id="W2E_153" type="ego_car" route="W2E" depart="1122" departSpeed="10" departLane="best"/>
   <vehicle id="W2E_154" type="ego_car" route="W2E" depart="1126" departSpeed="10" departLane="best"/>
   <vehicle id="W2E_155" type="ego_car" route="W2E" depart="1135" departSpeed="10" departLane="best"/>
   <vehicle id="W2E_156" type="ego_car" route="W2E" depart="1138" departSpeed="10" departLane="best"/>
   <vehicle id="W2E_157" type="ego_car" route="W2E" depart="1142" departSpeed="10" departLane="best"/>
   <vehicle id="E2W_158" type="ego_car" route="E2W" depart="1143" departSpeed="10" departLane="best"/>
   <vehicle id="W2E_159" type="ego_car" route="W2E" depart="1144" departSpeed="10" departLane="best"/>
   <vehicle id="E2W_160" type="ego_car" route="E2W" depart="1144" departSpeed="10" departLane="best"/>
   <vehicle id="W2E_161" type="ego_car" route="W2E" depart="1151" departSpeed="10" departLane="best"/>
   <vehicle id="W2E_162" type="ego_car" route="W2E" depart="1152" departSpeed="10" departLane="best"/>
   <vehicle id="W2E_163" type="ego_car" route="W2E" depart="1169" departSpeed="10" departLane="best"/>
   <vehicle id="W2E_164" type="ego_car" route="W2E" depart="1172" departSpeed="10" departLane="best"/>
   <vehicle id="W2E_165" type="ego_car" route="W2E" depart="1173" departSpeed="10" departLane="best"/>
   <vehicle id="E2W_166" type="ego_car" route="E2W" depart="1176" departSpeed="10" departLane="best"/>
   <vehicle id="W2E_167" type="ego_car" route="W2E" depart="1180" departSpeed="10" departLane="best"/>
   <vehicle id="W2E_168" type="ego_car" route="W2E" depart="1180" departSpeed="10" departLane="best"/>
   <vehicle id="E2W_169" type="ego_car" route="E2W" depart="1190" departSpeed="10" departLane="best"/>
   <vehicle id="W2E_170" type="ego_car" route="W2E" depart="1196" departSpeed="10" departLane="best"/>
   <vehicle id="W2E_171" type="ego_car" route="W2E" depart="1206" departSpeed="10" departLane="best"/>
   <vehicle id="E2W_172" type="ego_car" route="E2W" depart="1212" departSpeed="10" departLane="best"/>
   <vehicle id="W2E_173" type="ego_car" route="W2E" depart="1215" departSpeed="10" departLane="best"/>
   <vehicle id="W2E_174" type="ego_car" route="W2E" depart="1215" departSpeed="10" departLane="best"/>
   <vehicle id="E2W_175" type="ego_car" route="E2W" depart="1221" departSpeed="10" departLane="best"/>
   <vehicle id="W2E_176" type="ego_car" route="W2E" depart="1223" departSpeed="10" departLane="best"/>
   <vehicle id="W2E_177" type="ego_car" route="W2E" depart="1224" departSpeed="10" departLane="best"/>
   <vehicle id="W2E_178" type="ego_car" route="W2E" depart="1226" departSpeed="10" departLane="best"/>
   <vehicle id="E2W_179" type="ego_car" route="E2W" depart="1228" departSpeed="10" departLane="best"/>
   <vehicle id="E2W_180" type="ego_car" route="E2W" depart="1235" departSpeed="10" departLane="best"/>
   <vehicle id="W2E_181" type="ego_car" route="W2E" depart="1243" departSpeed="10" departLane="best"/>
   <vehicle id="E2W_182" type="ego_car" route="E2W" depart="1246" departSpeed="10" departLane="best"/>
   <vehicle id="E2W_183" type="ego_car" route="E2W" depart="1255" departSpeed="10" departLane="best"/>
   <vehicle id="W2E_184" type="ego_car" route="W2E" depart="1256" departSpeed="10" departLane="best"/>
   <vehicle id="E2W_185" type="ego_car" route="E2W" depart="1257" departSpeed="10" departLane="best"/>
   <vehicle id="W2E_186" type="ego_car" route="W2E" depart="1261" departSpeed="10" departLane="best"/>
   <vehicle id="W2E_187" type="ego_car" route="W2E" depart="1265" departSpeed="10" departLane="best"/>
   <vehicle id="W2E_188" type="ego_car" route="W2E" depart="1272" departSpeed="10" departLane="best"/>
   <vehicle id="W2E_189" type="ego_car" route="W2E" depart="1278" departSpeed="10" departLane="best"/>
   <vehicle id="W2E_190" type="ego_car" route="W2E" depart="1287" departSpeed="10" departLane="best"/>
   <vehicle id="W2E_191" type="ego_car" route="W2E" depart="1291" departSpeed="10" departLane="best"/>
   <vehicle id="E2W_192" type="ego_car" route="E2W" depart="1296" departSpeed="10" departLane="best"/>
   <vehicle id="W2E_193" type="ego_car" route="W2E" depart="1301" departSpeed="10" departLane="best"/>
   <vehicle id="W2E_194" type="ego_car" route="W2E" depart="1304" departSpeed="10" departLane="best"/>
   <vehicle id="W2E_195" type="ego_car" route="W2E" depart="1316" departSpeed="10" departLane="best"/>
   <vehicle id="W2E_196" type="ego_car" route="W2E" depart="1322" departSpeed="10" departLane="best"/>
   <vehicle id="E2W_197" type="ego_car" route="E2W" depart="1327" departSpeed="10" departLane="best"/>
   <vehicle id="W2E_198" type="ego_car" route="W2E" depart="1329" departSpeed="10" departLane="best"/>
   <vehicle id="W2E_199" type="ego_car" route="W2E" depart="1330" departSpeed="10" departLane="best"/>
   <vehicle id="W2E_200" type="ego_car" route="W2E" depart="1335" departSpeed="10" departLane="best"/>
   <vehicle id="E2W_201" type="ego_car" route="E2W" depart="1339" departSpeed="10" departLane="best"/>
   <vehicle id="E2W_202" type="ego_car" route="E2W" depart="1339" departSpeed="10" departLane="best"/>
   <vehicle id="W2E_203" type="ego_car" route="W2E" depart="1344" departSpeed="10" departLane="best"/>
   <vehicle id="E2W_204" type="ego_car" route="E2W" depart="1356" departSpeed="10" departLane="best"/>
   <vehicle id="W2E_205" type="ego_car" route="W2E" depart="1357" departSpeed="10" departLane="best"/>
   <vehicle id="E2W_206" type="ego_car" route="E2W" depart="1360" departSpeed="10" departLane="best"/>
   <vehicle id="E2W_207" type="ego_car" route="E2W" depart="1370" departSpeed="10" departLane="best"/>
   <vehicle id="W2E_208" type="ego_car" route="W2E" depart="1380" departSpeed="10" departLane="best"/>
   <vehicle id="W2E_209" type="ego_car" route="W2E" depart="1403" departSpeed="10" departLane="best"/>
   <vehicle id="W2E_210" type="ego_car" route="W2E" depart="1417" departSpeed="10" departLane="best"/>
   <vehicle id="W2E_211" type="ego_car" route="W2E" depart="1417" departSpeed="10" departLane="best"/>
   <vehicle id="W2E_212" type="ego_car" route="W2E" depart="1418" departSpeed="10" departLane="best"/>
   <vehicle id="W2E_213" type="ego_car" route="W2E" depart="1428" departSpeed="10" departLane="best"/>
   <vehicle id="E2W_214" type="ego_car" route="E2W" depart="1443" departSpeed="10" departLane="best"/>
   <vehicle id="W2E_215" type="ego_car" route="W2E" depart="1444" departSpeed="10" departLane="best"/>
   <vehicle id="E2W_216" type="ego_car" route="E2W" depart="1448" departSpeed="10" departLane="best"/>
   <vehicle id="E2W_217" type="ego_car" route="E2W" depart="1454" departSpeed="10" departLane="best"/>
   <vehicle id="W2E_218" type="ego_car" route="W2E" depart="1458" departSpeed="10" departLane="best"/>
   <vehicle id="W2E_219" type="ego_car" route="W2E" depart="1460" departSpeed="10" departLane="best"/>
   <vehicle id="W2E_220" type="ego_car" route="W2E" depart="1464" departSpeed="10" departLane="best"/>
   <vehicle id="W2E_221" type="ego_car" route="W2E" depart="1503" departSpeed="10" departLane="best"/>
   <vehicle id="E2W_222" type="ego_car" route="E2W" depart="1519" departSpeed="10" departLane="best"/>
   <vehicle id="E2W_223" type="ego_car" route="E2W" depart="1520" departSpeed="10" departLane="best"/>
   <vehicle id="E2W_224" type="ego_car" route="E2W" depart="1528" departSpeed="10" departLane="best"/>
   <vehicle id="W2E_225" type="ego_car" route="W2E" depart="1533" departSpeed="10" departLane="best"/>
   <vehicle id="E2W_226" type="ego_car" route="E2W" depart="1564" departSpeed="10" departLane="best"/>
   <vehicle id="W2E_227" type="ego_car" route="W2E" depart="1580" departSpeed="10" departLane="best"/>
   <vehicle id="E2W_228" type="ego_car" route="E2W" depart="1590" departSpeed="10" departLane="best"/>
   <vehicle id="W2E_229" type="ego_car" route="W2E" depart="1592" departSpeed="10" departLane="best"/>
   <vehicle id="E2W_230" type="ego_car" route="E2W" depart="1597" departSpeed="10" departLane="best"/>
   <vehicle id="W2E_231" type="ego_car" route="W2E" depart="1598" departSpeed="10" departLane="best"/>
   <vehicle id="W2E_232" type="ego_car" route="W2E" depart="1599" departSpeed="10" departLane="best"/>
   <vehicle id="E2W_233" type="ego_car" route="E2W" depart="1602" departSpeed="10" departLane="best"/>
   <vehicle id="W2E_234" type="ego_car" route="W2E" depart="1605" departSpeed="10" departLane="best"/>
   <vehicle id="E2W_235" type="ego_car" route="E2W" depart="1607" departSpeed="10" departLane="best"/>
   <vehicle id="W2E_236" type="ego_car" route="W2E" depart="1616" departSpeed="10" departLane="best"/>
   <vehicle id="E2W_237" type="ego_car" route="E2W" depart="1619" departSpeed="10" departLane="best"/>
   <vehicle id="E2W_238" type="ego_car" route="E2W" depart="1637" departSpeed="10" departLane="best"/>
   <vehicle id="W2E_239" type="ego_car" route="W2E" depart="1650" departSpeed="10" departLane="best"/>
   <vehicle id="W2E_240" type="ego_car" route="W2E" depart="1652" departSpeed="10" departLane="best"/>
   <vehicle id="W2E_241" type="ego_car" route="W2E" depart="1656" departSpeed="10" departLane="best"/>
   <vehicle id="W2E_242" type="ego_car" route="W2E" depart="1674" departSpeed="10" departLane="best"/>
   <vehicle id="E2W_243" type="ego_car" route="E2W" depart="1680" departSpeed="10" departLane="best"/>
   <vehicle id="E2W_244" type="ego_car" route="E2W" depart="1681" departSpeed="10" departLane="best"/>
   <vehicle id="E2W_245" type="ego_car" route="E2W" depart="1714" departSpeed="10" departLane="best"/>
   <vehicle id="E2W_246" type="ego_car" route="E2W" depart="1716" departSpeed="10" departLane="best"/>
   <vehicle id="W2E_247" type="ego_car" route="W2E" depart="1729" departSpeed="10" departLane="best"/>
   <vehicle id="W2E_248" type="ego_car" route="W2E" depart="1756" departSpeed="10" departLane="best"/>
   <vehicle id="W2E_249" type="ego_car" route="W2E" depart="1759" departSpeed="10" departLane="best"/>
   <vehicle id="W2E_250" type="ego_car" route="W2E" depart="1768" departSpeed="10" departLane="best"/>
   <vehicle id="E2W_251" type="ego_car" route="E2W" depart="1770" departSpeed="10" departLane="best"/>
   <vehicle id="W2E_252" type="ego_car" route="W2E" depart="1774" departSpeed="10" departLane="best"/>
   <vehicle id="E2W_253" type="ego_car" route="E2W" depart="1778" departSpeed="10" departLane="best"/>
   <vehicle id="W2E_254" type="ego_car" route="W2E" depart="1819" departSpeed="10" departLane="best"/>
   <vehicle id="W2E_255" type="ego_car" route="W2E" depart="1876" departSpeed="10" departLane="best"/>
   <vehicle id="W2E_256" type="ego_car" route="W2E" depart="1885" departSpeed="10" departLane="best"/>
   <vehicle id="E2W_257" type="ego_car" route="E2W" depart="1890" departSpeed="10" departLane="best"/>
   <vehicle id="W2E_258" type="ego_car" route="W2E" depart="1907" departSpeed="10" departLane="best"/>
   <vehicle id="E2W_259" type="ego_car" route="E2W" depart="1912" departSpeed="10" departLane="best"/>
   <vehicle id="E2W_260" type="ego_car" route="E2W" depart="1938" departSpeed="10" departLane="best"/>
   <vehicle id="W2E_261" type="ego_car" route="W2E" depart="1951" departSpeed="10" departLane="best"/>
   <vehicle id="E2W_262" type="ego_car" route="E2W" depart="1971" departSpeed="10" departLane="best"/>
   <vehicle id="W2E_263" type="ego_car" route="W2E" depart="1981" departSpeed="10" departLane="best"/>
   <vehicle id="W2E_264" type="ego_car" route="W2E" depart="2005" departSpeed="10" departLane="best"/>
   <vehicle id="W2E_265" type="ego_car" route="W2E" depart="2033" departSpeed="10" departLane="best"/>
   <vehicle id="E2W_266" type="ego_car" route="E2W" depart="2037" departSpeed="10" departLane="best"/>
   <vehicle id="W2E_267" type="ego_car" route="W2E" depart="2069" departSpeed="10" departLane="best"/>
   <vehicle id="W2E_268" type="ego_car" route="W2E" depart="2093" departSpeed="10" departLane="best"/>
   <vehicle id="E2W_269" type="ego_car" route="E2W" depart="2094" departSpeed="10" departLane="best"/>
   <vehicle id="E2W_270" type="ego_car" route="E2W" depart="2133" departSpeed="10" departLane="best"/>
   <vehicle id="W2E_271" type="ego_car" route="W2E" depart="2144" departSpeed="10" departLane="best"/>
   <vehicle id="E2W_272" type="ego_car" route="E2W" depart="2145" departSpeed="10" departLane="best"/>
   <vehicle id="E2W_273" type="ego_car" route="E2W" depart="2248" departSpeed="10" departLane="best"/>
   <vehicle id="E2W_274" type="ego_car" route="E2W" depart="2343" departSpeed="10" departLane="best"/>
   <vehicle id="E2W_275" type="ego_car" route="E2W" depart="2486" departSpeed="10" departLane="best"/>
   <vehicle id="E2W_276" type="ego_car" route="E2W" depart="2506" departSpeed="10" departLane="best"/>
   <vehicle id="W2E_277" type="ego_car" route="W2E" depart="2575" departSpeed="10" departLane="best"/>
   <vehicle id="E2W_278" type="ego_car" route="E2W" depart="2639" departSpeed="10" departLane="best"/>
   <vehicle id="E2W_279" type="ego_car" route="E2W" depart="2678" departSpeed="10" departLane="best"/>
   <vehicle id="E2W_280" type="ego_car" route="E2W" depart="2830" departSpeed="10" departLane="best"/>
</routes>
