<configuration>
    <input>
        <net-file value="/home/yuwz/graduation_design/DDPG5/rou_net2/intersection1.net.xml"/>
        <route-files value="/home/yuwz/graduation_design/DDPG5/rou_net2/intersection2.rou.xml"/>
    </input>
    <time>
        <begin value="0"/>
        <end value="3600"/>
        <step-length value="1"/>
    </time>
    <tripinfo-output value="tripinfo.xml"/>
</configuration>
