<routes>

        <vType id = 'ego_car' vclass="evehicle" emissionClass="Energy/unknown" tau="1" accel="3.0" decel="3.0" color="#00FFFF" sigma="0.2" length="4.90" minGap="1" maxSpeed="20" guiShape="passenger">
            <param key="has.battery.device" value="true"/>
            <param key="maximumBatteryCapacity" value="38000"/> 
            <param key="maximumPower" value="200000"/>
            <param key="vehicleMass" value="1830"/>
            <param key="frontSurfaceArea" value="2.6"/>
            <param key="airDragCoefficient" value="0.35"/>
            <param key="internalMomentOfInertia" value="0.01"/>
            <param key="radialDragCoefficient" value="0.1"/>
            <param key="rollDragCoefficient" value="0.01"/>
            <param key="constantPowerIntake" value="100"/>
            <param key="propulsionEfficiency" value="0.9"/>
            <param key="recuperationEfficiency" value="0.9"/>
            <param key="stoppingThreshold" value="0.1"/>
        </vType>
        
        <route id="W2E" edges="WE0 WE1"/>
        <route id="E2W" edges="EW0 EW1"/>
   <vehicle id="W2E_1" type="ego_car" route="W2E" depart="71" departSpeed="10" departLane="best"/>
   <vehicle id="W2E_2" type="ego_car" route="W2E" depart="95" departSpeed="10" departLane="best"/>
   <vehicle id="W2E_3" type="ego_car" route="W2E" depart="163" departSpeed="10" departLane="best"/>
   <vehicle id="E2W_4" type="ego_car" route="E2W" depart="174" departSpeed="10" departLane="best"/>
   <vehicle id="E2W_5" type="ego_car" route="E2W" depart="179" departSpeed="10" departLane="best"/>
   <vehicle id="E2W_6" type="ego_car" route="E2W" depart="196" departSpeed="10" departLane="best"/>
   <vehicle id="E2W_7" type="ego_car" route="E2W" depart="200" departSpeed="10" departLane="best"/>
   <vehicle id="E2W_8" type="ego_car" route="E2W" depart="202" departSpeed="10" departLane="best"/>
   <vehicle id="E2W_9" type="ego_car" route="E2W" depart="216" departSpeed="10" departLane="best"/>
   <vehicle id="E2W_10" type="ego_car" route="E2W" depart="220" departSpeed="10" departLane="best"/>
   <vehicle id="E2W_11" type="ego_car" route="E2W" depart="229" departSpeed="10" departLane="best"/>
   <vehicle id="E2W_12" type="ego_car" route="E2W" depart="231" departSpeed="10" departLane="best"/>
   <vehicle id="E2W_13" type="ego_car" route="E2W" depart="233" departSpeed="10" departLane="best"/>
   <vehicle id="W2E_14" type="ego_car" route="W2E" depart="237" departSpeed="10" departLane="best"/>
   <vehicle id="E2W_15" type="ego_car" route="E2W" depart="241" departSpeed="10" departLane="best"/>
   <vehicle id="E2W_16" type="ego_car" route="E2W" depart="244" departSpeed="10" departLane="best"/>
   <vehicle id="W2E_17" type="ego_car" route="W2E" depart="245" departSpeed="10" departLane="best"/>
   <vehicle id="E2W_18" type="ego_car" route="E2W" depart="250" departSpeed="10" departLane="best"/>
   <vehicle id="W2E_19" type="ego_car" route="W2E" depart="274" departSpeed="10" departLane="best"/>
   <vehicle id="E2W_20" type="ego_car" route="E2W" depart="283" departSpeed="10" departLane="best"/>
   <vehicle id="E2W_21" type="ego_car" route="E2W" depart="285" departSpeed="10" departLane="best"/>
   <vehicle id="E2W_22" type="ego_car" route="E2W" depart="316" departSpeed="10" departLane="best"/>
   <vehicle id="W2E_23" type="ego_car" route="W2E" depart="317" departSpeed="10" departLane="best"/>
   <vehicle id="E2W_24" type="ego_car" route="E2W" depart="318" departSpeed="10" departLane="best"/>
   <vehicle id="W2E_25" type="ego_car" route="W2E" depart="320" departSpeed="10" departLane="best"/>
   <vehicle id="E2W_26" type="ego_car" route="E2W" depart="330" departSpeed="10" departLane="best"/>
   <vehicle id="E2W_27" type="ego_car" route="E2W" depart="337" departSpeed="10" departLane="best"/>
   <vehicle id="E2W_28" type="ego_car" route="E2W" depart="339" departSpeed="10" departLane="best"/>
   <vehicle id="W2E_29" type="ego_car" route="W2E" depart="355" departSpeed="10" departLane="best"/>
   <vehicle id="E2W_30" type="ego_car" route="E2W" depart="357" departSpeed="10" departLane="best"/>
   <vehicle id="W2E_31" type="ego_car" route="W2E" depart="372" departSpeed="10" departLane="best"/>
   <vehicle id="E2W_32" type="ego_car" route="E2W" depart="372" departSpeed="10" departLane="best"/>
   <vehicle id="E2W_33" type="ego_car" route="E2W" depart="392" departSpeed="10" departLane="best"/>
   <vehicle id="W2E_34" type="ego_car" route="W2E" depart="409" departSpeed="10" departLane="best"/>
   <vehicle id="W2E_35" type="ego_car" route="W2E" depart="411" departSpeed="10" departLane="best"/>
   <vehicle id="E2W_36" type="ego_car" route="E2W" depart="419" departSpeed="10" departLane="best"/>
   <vehicle id="E2W_37" type="ego_car" route="E2W" depart="422" departSpeed="10" departLane="best"/>
   <vehicle id="E2W_38" type="ego_car" route="E2W" depart="423" departSpeed="10" departLane="best"/>
   <vehicle id="W2E_39" type="ego_car" route="W2E" depart="426" departSpeed="10" departLane="best"/>
   <vehicle id="E2W_40" type="ego_car" route="E2W" depart="426" departSpeed="10" departLane="best"/>
   <vehicle id="W2E_41" type="ego_car" route="W2E" depart="439" departSpeed="10" departLane="best"/>
   <vehicle id="E2W_42" type="ego_car" route="E2W" depart="441" departSpeed="10" departLane="best"/>
   <vehicle id="E2W_43" type="ego_car" route="E2W" depart="446" departSpeed="10" departLane="best"/>
   <vehicle id="E2W_44" type="ego_car" route="E2W" depart="447" departSpeed="10" departLane="best"/>
   <vehicle id="W2E_45" type="ego_car" route="W2E" depart="448" departSpeed="10" departLane="best"/>
   <vehicle id="W2E_46" type="ego_car" route="W2E" depart="449" departSpeed="10" departLane="best"/>
   <vehicle id="W2E_47" type="ego_car" route="W2E" depart="459" departSpeed="10" departLane="best"/>
   <vehicle id="E2W_48" type="ego_car" route="E2W" depart="484" departSpeed="10" departLane="best"/>
   <vehicle id="W2E_49" type="ego_car" route="W2E" depart="490" departSpeed="10" departLane="best"/>
   <vehicle id="W2E_50" type="ego_car" route="W2E" depart="528" departSpeed="10" departLane="best"/>
   <vehicle id="E2W_51" type="ego_car" route="E2W" depart="535" departSpeed="10" departLane="best"/>
   <vehicle id="E2W_52" type="ego_car" route="E2W" depart="537" departSpeed="10" departLane="best"/>
   <vehicle id="E2W_53" type="ego_car" route="E2W" depart="542" departSpeed="10" departLane="best"/>
   <vehicle id="E2W_54" type="ego_car" route="E2W" depart="544" departSpeed="10" departLane="best"/>
   <vehicle id="W2E_55" type="ego_car" route="W2E" depart="547" departSpeed="10" departLane="best"/>
   <vehicle id="E2W_56" type="ego_car" route="E2W" depart="547" departSpeed="10" departLane="best"/>
   <vehicle id="E2W_57" type="ego_car" route="E2W" depart="558" departSpeed="10" departLane="best"/>
   <vehicle id="E2W_58" type="ego_car" route="E2W" depart="565" departSpeed="10" departLane="best"/>
   <vehicle id="W2E_59" type="ego_car" route="W2E" depart="567" departSpeed="10" departLane="best"/>
   <vehicle id="W2E_60" type="ego_car" route="W2E" depart="570" departSpeed="10" departLane="best"/>
   <vehicle id="W2E_61" type="ego_car" route="W2E" depart="571" departSpeed="10" departLane="best"/>
   <vehicle id="E2W_62" type="ego_car" route="E2W" depart="578" departSpeed="10" departLane="best"/>
   <vehicle id="E2W_63" type="ego_car" route="E2W" depart="591" departSpeed="10" departLane="best"/>
   <vehicle id="W2E_64" type="ego_car" route="W2E" depart="594" departSpeed="10" departLane="best"/>
   <vehicle id="W2E_65" type="ego_car" route="W2E" depart="599" departSpeed="10" departLane="best"/>
   <vehicle id="E2W_66" type="ego_car" route="E2W" depart="602" departSpeed="10" departLane="best"/>
   <vehicle id="W2E_67" type="ego_car" route="W2E" depart="604" departSpeed="10" departLane="best"/>
   <vehicle id="E2W_68" type="ego_car" route="E2W" depart="607" departSpeed="10" departLane="best"/>
   <vehicle id="W2E_69" type="ego_car" route="W2E" depart="608" departSpeed="10" departLane="best"/>
   <vehicle id="W2E_70" type="ego_car" route="W2E" depart="619" departSpeed="10" departLane="best"/>
   <vehicle id="E2W_71" type="ego_car" route="E2W" depart="622" departSpeed="10" departLane="best"/>
   <vehicle id="E2W_72" type="ego_car" route="E2W" depart="626" departSpeed="10" departLane="best"/>
   <vehicle id="W2E_73" type="ego_car" route="W2E" depart="649" departSpeed="10" departLane="best"/>
   <vehicle id="E2W_74" type="ego_car" route="E2W" depart="659" departSpeed="10" departLane="best"/>
   <vehicle id="W2E_75" type="ego_car" route="W2E" depart="660" departSpeed="10" departLane="best"/>
   <vehicle id="W2E_76" type="ego_car" route="W2E" depart="662" departSpeed="10" departLane="best"/>
   <vehicle id="W2E_77" type="ego_car" route="W2E" depart="665" departSpeed="10" departLane="best"/>
   <vehicle id="E2W_78" type="ego_car" route="E2W" depart="678" departSpeed="10" departLane="best"/>
   <vehicle id="E2W_79" type="ego_car" route="E2W" depart="683" departSpeed="10" departLane="best"/>
   <vehicle id="W2E_80" type="ego_car" route="W2E" depart="686" departSpeed="10" departLane="best"/>
   <vehicle id="E2W_81" type="ego_car" route="E2W" depart="696" departSpeed="10" departLane="best"/>
   <vehicle id="E2W_82" type="ego_car" route="E2W" depart="712" departSpeed="10" departLane="best"/>
   <vehicle id="W2E_83" type="ego_car" route="W2E" depart="714" departSpeed="10" departLane="best"/>
   <vehicle id="W2E_84" type="ego_car" route="W2E" depart="718" departSpeed="10" departLane="best"/>
   <vehicle id="W2E_85" type="ego_car" route="W2E" depart="718" departSpeed="10" departLane="best"/>
   <vehicle id="E2W_86" type="ego_car" route="E2W" depart="721" departSpeed="10" departLane="best"/>
   <vehicle id="W2E_87" type="ego_car" route="W2E" depart="735" departSpeed="10" departLane="best"/>
   <vehicle id="E2W_88" type="ego_car" route="E2W" depart="737" departSpeed="10" departLane="best"/>
   <vehicle id="E2W_89" type="ego_car" route="E2W" depart="738" departSpeed="10" departLane="best"/>
   <vehicle id="W2E_90" type="ego_car" route="W2E" depart="742" departSpeed="10" departLane="best"/>
   <vehicle id="E2W_91" type="ego_car" route="E2W" depart="743" departSpeed="10" departLane="best"/>
   <vehicle id="W2E_92" type="ego_car" route="W2E" depart="749" departSpeed="10" departLane="best"/>
   <vehicle id="E2W_93" type="ego_car" route="E2W" depart="752" departSpeed="10" departLane="best"/>
   <vehicle id="W2E_94" type="ego_car" route="W2E" depart="753" departSpeed="10" departLane="best"/>
   <vehicle id="W2E_95" type="ego_car" route="W2E" depart="754" departSpeed="10" departLane="best"/>
   <vehicle id="W2E_96" type="ego_car" route="W2E" depart="760" departSpeed="10" departLane="best"/>
   <vehicle id="W2E_97" type="ego_car" route="W2E" depart="760" departSpeed="10" departLane="best"/>
   <vehicle id="W2E_98" type="ego_car" route="W2E" depart="764" departSpeed="10" departLane="best"/>
   <vehicle id="E2W_99" type="ego_car" route="E2W" depart="778" departSpeed="10" departLane="best"/>
   <vehicle id="E2W_100" type="ego_car" route="E2W" depart="798" departSpeed="10" departLane="best"/>
   <vehicle id="E2W_101" type="ego_car" route="E2W" depart="799" departSpeed="10" departLane="best"/>
   <vehicle id="W2E_102" type="ego_car" route="W2E" depart="801" departSpeed="10" departLane="best"/>
   <vehicle id="W2E_103" type="ego_car" route="W2E" depart="816" departSpeed="10" departLane="best"/>
   <vehicle id="W2E_104" type="ego_car" route="W2E" depart="816" departSpeed="10" departLane="best"/>
   <vehicle id="E2W_105" type="ego_car" route="E2W" depart="816" departSpeed="10" departLane="best"/>
   <vehicle id="W2E_106" type="ego_car" route="W2E" depart="820" departSpeed="10" departLane="best"/>
   <vehicle id="E2W_107" type="ego_car" route="E2W" depart="820" departSpeed="10" departLane="best"/>
   <vehicle id="E2W_108" type="ego_car" route="E2W" depart="824" departSpeed="10" departLane="best"/>
   <vehicle id="E2W_109" type="ego_car" route="E2W" depart="826" departSpeed="10" departLane="best"/>
   <vehicle id="E2W_110" type="ego_car" route="E2W" depart="829" departSpeed="10" departLane="best"/>
   <vehicle id="W2E_111" type="ego_car" route="W2E" depart="847" departSpeed="10" departLane="best"/>
   <vehicle id="E2W_112" type="ego_car" route="E2W" depart="847" departSpeed="10" departLane="best"/>
   <vehicle id="W2E_113" type="ego_car" route="W2E" depart="849" departSpeed="10" departLane="best"/>
   <vehicle id="W2E_114" type="ego_car" route="W2E" depart="853" departSpeed="10" departLane="best"/>
   <vehicle id="E2W_115" type="ego_car" route="E2W" depart="854" departSpeed="10" departLane="best"/>
   <vehicle id="W2E_116" type="ego_car" route="W2E" depart="857" departSpeed="10" departLane="best"/>
   <vehicle id="E2W_117" type="ego_car" route="E2W" depart="857" departSpeed="10" departLane="best"/>
   <vehicle id="W2E_118" type="ego_car" route="W2E" depart="867" departSpeed="10" departLane="best"/>
   <vehicle id="E2W_119" type="ego_car" route="E2W" depart="875" departSpeed="10" departLane="best"/>
   <vehicle id="W2E_120" type="ego_car" route="W2E" depart="878" departSpeed="10" departLane="best"/>
   <vehicle id="W2E_121" type="ego_car" route="W2E" depart="890" departSpeed="10" departLane="best"/>
   <vehicle id="E2W_122" type="ego_car" route="E2W" depart="895" departSpeed="10" departLane="best"/>
   <vehicle id="E2W_123" type="ego_car" route="E2W" depart="896" departSpeed="10" departLane="best"/>
   <vehicle id="E2W_124" type="ego_car" route="E2W" depart="906" departSpeed="10" departLane="best"/>
   <vehicle id="W2E_125" type="ego_car" route="W2E" depart="907" departSpeed="10" departLane="best"/>
   <vehicle id="W2E_126" type="ego_car" route="W2E" depart="914" departSpeed="10" departLane="best"/>
   <vehicle id="E2W_127" type="ego_car" route="E2W" depart="914" departSpeed="10" departLane="best"/>
   <vehicle id="W2E_128" type="ego_car" route="W2E" depart="926" departSpeed="10" departLane="best"/>
   <vehicle id="W2E_129" type="ego_car" route="W2E" depart="932" departSpeed="10" departLane="best"/>
   <vehicle id="E2W_130" type="ego_car" route="E2W" depart="933" departSpeed="10" departLane="best"/>
   <vehicle id="W2E_131" type="ego_car" route="W2E" depart="935" departSpeed="10" departLane="best"/>
   <vehicle id="E2W_132" type="ego_car" route="E2W" depart="937" departSpeed="10" departLane="best"/>
   <vehicle id="W2E_133" type="ego_car" route="W2E" depart="942" departSpeed="10" departLane="best"/>
   <vehicle id="W2E_134" type="ego_car" route="W2E" depart="963" departSpeed="10" departLane="best"/>
   <vehicle id="W2E_135" type="ego_car" route="W2E" depart="967" departSpeed="10" departLane="best"/>
   <vehicle id="E2W_136" type="ego_car" route="E2W" depart="967" departSpeed="10" departLane="best"/>
   <vehicle id="E2W_137" type="ego_car" route="E2W" depart="969" departSpeed="10" departLane="best"/>
   <vehicle id="E2W_138" type="ego_car" route="E2W" depart="980" departSpeed="10" departLane="best"/>
   <vehicle id="E2W_139" type="ego_car" route="E2W" depart="982" departSpeed="10" departLane="best"/>
   <vehicle id="E2W_140" type="ego_car" route="E2W" depart="983" departSpeed="10" departLane="best"/>
   <vehicle id="W2E_141" type="ego_car" route="W2E" depart="989" departSpeed="10" departLane="best"/>
   <vehicle id="W2E_142" type="ego_car" route="W2E" depart="992" departSpeed="10" departLane="best"/>
   <vehicle id="E2W_143" type="ego_car" route="E2W" depart="995" departSpeed="10" departLane="best"/>
   <vehicle id="W2E_144" type="ego_car" route="W2E" depart="996" departSpeed="10" departLane="best"/>
   <vehicle id="W2E_145" type="ego_car" route="W2E" depart="1009" departSpeed="10" departLane="best"/>
   <vehicle id="E2W_146" type="ego_car" route="E2W" depart="1021" departSpeed="10" departLane="best"/>
   <vehicle id="W2E_147" type="ego_car" route="W2E" depart="1037" departSpeed="10" departLane="best"/>
   <vehicle id="W2E_148" type="ego_car" route="W2E" depart="1037" departSpeed="10" departLane="best"/>
   <vehicle id="W2E_149" type="ego_car" route="W2E" depart="1039" departSpeed="10" departLane="best"/>
   <vehicle id="W2E_150" type="ego_car" route="W2E" depart="1040" departSpeed="10" departLane="best"/>
   <vehicle id="E2W_151" type="ego_car" route="E2W" depart="1050" departSpeed="10" departLane="best"/>
   <vehicle id="E2W_152" type="ego_car" route="E2W" depart="1065" departSpeed="10" departLane="best"/>
   <vehicle id="W2E_153" type="ego_car" route="W2E" depart="1066" departSpeed="10" departLane="best"/>
   <vehicle id="W2E_154" type="ego_car" route="W2E" depart="1069" departSpeed="10" departLane="best"/>
   <vehicle id="W2E_155" type="ego_car" route="W2E" depart="1071" departSpeed="10" departLane="best"/>
   <vehicle id="W2E_156" type="ego_car" route="W2E" depart="1080" departSpeed="10" departLane="best"/>
   <vehicle id="W2E_157" type="ego_car" route="W2E" depart="1096" departSpeed="10" departLane="best"/>
   <vehicle id="W2E_158" type="ego_car" route="W2E" depart="1098" departSpeed="10" departLane="best"/>
   <vehicle id="W2E_159" type="ego_car" route="W2E" depart="1108" departSpeed="10" departLane="best"/>
   <vehicle id="E2W_160" type="ego_car" route="E2W" depart="1116" departSpeed="10" departLane="best"/>
   <vehicle id="E2W_161" type="ego_car" route="E2W" depart="1117" departSpeed="10" departLane="best"/>
   <vehicle id="W2E_162" type="ego_car" route="W2E" depart="1118" departSpeed="10" departLane="best"/>
   <vehicle id="E2W_163" type="ego_car" route="E2W" depart="1127" departSpeed="10" departLane="best"/>
   <vehicle id="W2E_164" type="ego_car" route="W2E" depart="1137" departSpeed="10" departLane="best"/>
   <vehicle id="E2W_165" type="ego_car" route="E2W" depart="1138" departSpeed="10" departLane="best"/>
   <vehicle id="W2E_166" type="ego_car" route="W2E" depart="1148" departSpeed="10" departLane="best"/>
   <vehicle id="W2E_167" type="ego_car" route="W2E" depart="1154" departSpeed="10" departLane="best"/>
   <vehicle id="E2W_168" type="ego_car" route="E2W" depart="1154" departSpeed="10" departLane="best"/>
   <vehicle id="W2E_169" type="ego_car" route="W2E" depart="1165" departSpeed="10" departLane="best"/>
   <vehicle id="W2E_170" type="ego_car" route="W2E" depart="1169" departSpeed="10" departLane="best"/>
   <vehicle id="W2E_171" type="ego_car" route="W2E" depart="1177" departSpeed="10" departLane="best"/>
   <vehicle id="E2W_172" type="ego_car" route="E2W" depart="1178" departSpeed="10" departLane="best"/>
   <vehicle id="E2W_173" type="ego_car" route="E2W" depart="1181" departSpeed="10" departLane="best"/>
   <vehicle id="W2E_174" type="ego_car" route="W2E" depart="1190" departSpeed="10" departLane="best"/>
   <vehicle id="W2E_175" type="ego_car" route="W2E" depart="1193" departSpeed="10" departLane="best"/>
   <vehicle id="E2W_176" type="ego_car" route="E2W" depart="1195" departSpeed="10" departLane="best"/>
   <vehicle id="W2E_177" type="ego_car" route="W2E" depart="1198" departSpeed="10" departLane="best"/>
   <vehicle id="E2W_178" type="ego_car" route="E2W" depart="1198" departSpeed="10" departLane="best"/>
   <vehicle id="W2E_179" type="ego_car" route="W2E" depart="1204" departSpeed="10" departLane="best"/>
   <vehicle id="E2W_180" type="ego_car" route="E2W" depart="1215" departSpeed="10" departLane="best"/>
   <vehicle id="W2E_181" type="ego_car" route="W2E" depart="1216" departSpeed="10" departLane="best"/>
   <vehicle id="W2E_182" type="ego_car" route="W2E" depart="1221" departSpeed="10" departLane="best"/>
   <vehicle id="W2E_183" type="ego_car" route="W2E" depart="1229" departSpeed="10" departLane="best"/>
   <vehicle id="W2E_184" type="ego_car" route="W2E" depart="1235" departSpeed="10" departLane="best"/>
   <vehicle id="E2W_185" type="ego_car" route="E2W" depart="1237" departSpeed="10" departLane="best"/>
   <vehicle id="W2E_186" type="ego_car" route="W2E" depart="1237" departSpeed="10" departLane="best"/>
   <vehicle id="E2W_187" type="ego_car" route="E2W" depart="1243" departSpeed="10" departLane="best"/>
   <vehicle id="E2W_188" type="ego_car" route="E2W" depart="1249" departSpeed="10" departLane="best"/>
   <vehicle id="W2E_189" type="ego_car" route="W2E" depart="1252" departSpeed="10" departLane="best"/>
   <vehicle id="E2W_190" type="ego_car" route="E2W" depart="1254" departSpeed="10" departLane="best"/>
   <vehicle id="E2W_191" type="ego_car" route="E2W" depart="1293" departSpeed="10" departLane="best"/>
   <vehicle id="W2E_192" type="ego_car" route="W2E" depart="1304" departSpeed="10" departLane="best"/>
   <vehicle id="W2E_193" type="ego_car" route="W2E" depart="1310" departSpeed="10" departLane="best"/>
   <vehicle id="E2W_194" type="ego_car" route="E2W" depart="1311" departSpeed="10" departLane="best"/>
   <vehicle id="E2W_195" type="ego_car" route="E2W" depart="1313" departSpeed="10" departLane="best"/>
   <vehicle id="E2W_196" type="ego_car" route="E2W" depart="1320" departSpeed="10" departLane="best"/>
   <vehicle id="W2E_197" type="ego_car" route="W2E" depart="1325" departSpeed="10" departLane="best"/>
   <vehicle id="W2E_198" type="ego_car" route="W2E" depart="1342" departSpeed="10" departLane="best"/>
   <vehicle id="W2E_199" type="ego_car" route="W2E" depart="1343" departSpeed="10" departLane="best"/>
   <vehicle id="E2W_200" type="ego_car" route="E2W" depart="1343" departSpeed="10" departLane="best"/>
   <vehicle id="E2W_201" type="ego_car" route="E2W" depart="1349" departSpeed="10" departLane="best"/>
   <vehicle id="W2E_202" type="ego_car" route="W2E" depart="1350" departSpeed="10" departLane="best"/>
   <vehicle id="E2W_203" type="ego_car" route="E2W" depart="1356" departSpeed="10" departLane="best"/>
   <vehicle id="W2E_204" type="ego_car" route="W2E" depart="1364" departSpeed="10" departLane="best"/>
   <vehicle id="E2W_205" type="ego_car" route="E2W" depart="1376" departSpeed="10" departLane="best"/>
   <vehicle id="W2E_206" type="ego_car" route="W2E" depart="1384" departSpeed="10" departLane="best"/>
   <vehicle id="E2W_207" type="ego_car" route="E2W" depart="1393" departSpeed="10" departLane="best"/>
   <vehicle id="W2E_208" type="ego_car" route="W2E" depart="1400" departSpeed="10" departLane="best"/>
   <vehicle id="E2W_209" type="ego_car" route="E2W" depart="1401" departSpeed="10" departLane="best"/>
   <vehicle id="W2E_210" type="ego_car" route="W2E" depart="1426" departSpeed="10" departLane="best"/>
   <vehicle id="E2W_211" type="ego_car" route="E2W" depart="1429" departSpeed="10" departLane="best"/>
   <vehicle id="E2W_212" type="ego_car" route="E2W" depart="1439" departSpeed="10" departLane="best"/>
   <vehicle id="W2E_213" type="ego_car" route="W2E" depart="1459" departSpeed="10" departLane="best"/>
   <vehicle id="E2W_214" type="ego_car" route="E2W" depart="1471" departSpeed="10" departLane="best"/>
   <vehicle id="W2E_215" type="ego_car" route="W2E" depart="1476" departSpeed="10" departLane="best"/>
   <vehicle id="W2E_216" type="ego_car" route="W2E" depart="1479" departSpeed="10" departLane="best"/>
   <vehicle id="W2E_217" type="ego_car" route="W2E" depart="1527" departSpeed="10" departLane="best"/>
   <vehicle id="W2E_218" type="ego_car" route="W2E" depart="1530" departSpeed="10" departLane="best"/>
   <vehicle id="W2E_219" type="ego_car" route="W2E" depart="1537" departSpeed="10" departLane="best"/>
   <vehicle id="E2W_220" type="ego_car" route="E2W" depart="1538" departSpeed="10" departLane="best"/>
   <vehicle id="W2E_221" type="ego_car" route="W2E" depart="1556" departSpeed="10" departLane="best"/>
   <vehicle id="W2E_222" type="ego_car" route="W2E" depart="1559" departSpeed="10" departLane="best"/>
   <vehicle id="E2W_223" type="ego_car" route="E2W" depart="1567" departSpeed="10" departLane="best"/>
   <vehicle id="E2W_224" type="ego_car" route="E2W" depart="1577" departSpeed="10" departLane="best"/>
   <vehicle id="W2E_225" type="ego_car" route="W2E" depart="1594" departSpeed="10" departLane="best"/>
   <vehicle id="W2E_226" type="ego_car" route="W2E" depart="1607" departSpeed="10" departLane="best"/>
   <vehicle id="E2W_227" type="ego_car" route="E2W" depart="1612" departSpeed="10" departLane="best"/>
   <vehicle id="E2W_228" type="ego_car" route="E2W" depart="1619" departSpeed="10" departLane="best"/>
   <vehicle id="E2W_229" type="ego_car" route="E2W" depart="1626" departSpeed="10" departLane="best"/>
   <vehicle id="W2E_230" type="ego_car" route="W2E" depart="1632" departSpeed="10" departLane="best"/>
   <vehicle id="W2E_231" type="ego_car" route="W2E" depart="1640" departSpeed="10" departLane="best"/>
   <vehicle id="E2W_232" type="ego_car" route="E2W" depart="1651" departSpeed="10" departLane="best"/>
   <vehicle id="E2W_233" type="ego_car" route="E2W" depart="1659" departSpeed="10" departLane="best"/>
   <vehicle id="E2W_234" type="ego_car" route="E2W" depart="1663" departSpeed="10" departLane="best"/>
   <vehicle id="W2E_235" type="ego_car" route="W2E" depart="1666" departSpeed="10" departLane="best"/>
   <vehicle id="E2W_236" type="ego_car" route="E2W" depart="1667" departSpeed="10" departLane="best"/>
   <vehicle id="E2W_237" type="ego_car" route="E2W" depart="1673" departSpeed="10" departLane="best"/>
   <vehicle id="W2E_238" type="ego_car" route="W2E" depart="1676" departSpeed="10" departLane="best"/>
   <vehicle id="W2E_239" type="ego_car" route="W2E" depart="1683" departSpeed="10" departLane="best"/>
   <vehicle id="E2W_240" type="ego_car" route="E2W" depart="1685" departSpeed="10" departLane="best"/>
   <vehicle id="W2E_241" type="ego_car" route="W2E" depart="1692" departSpeed="10" departLane="best"/>
   <vehicle id="W2E_242" type="ego_car" route="W2E" depart="1694" departSpeed="10" departLane="best"/>
   <vehicle id="E2W_243" type="ego_car" route="E2W" depart="1703" departSpeed="10" departLane="best"/>
   <vehicle id="E2W_244" type="ego_car" route="E2W" depart="1704" departSpeed="10" departLane="best"/>
   <vehicle id="W2E_245" type="ego_car" route="W2E" depart="1713" departSpeed="10" departLane="best"/>
   <vehicle id="E2W_246" type="ego_car" route="E2W" depart="1719" departSpeed="10" departLane="best"/>
   <vehicle id="E2W_247" type="ego_car" route="E2W" depart="1722" departSpeed="10" departLane="best"/>
   <vehicle id="E2W_248" type="ego_car" route="E2W" depart="1722" departSpeed="10" departLane="best"/>
   <vehicle id="E2W_249" type="ego_car" route="E2W" depart="1728" departSpeed="10" departLane="best"/>
   <vehicle id="W2E_250" type="ego_car" route="W2E" depart="1742" departSpeed="10" departLane="best"/>
   <vehicle id="E2W_251" type="ego_car" route="E2W" depart="1752" departSpeed="10" departLane="best"/>
   <vehicle id="W2E_252" type="ego_car" route="W2E" depart="1771" departSpeed="10" departLane="best"/>
   <vehicle id="W2E_253" type="ego_car" route="W2E" depart="1801" departSpeed="10" departLane="best"/>
   <vehicle id="W2E_254" type="ego_car" route="W2E" depart="1821" departSpeed="10" departLane="best"/>
   <vehicle id="E2W_255" type="ego_car" route="E2W" depart="1821" departSpeed="10" departLane="best"/>
   <vehicle id="W2E_256" type="ego_car" route="W2E" depart="1845" departSpeed="10" departLane="best"/>
   <vehicle id="W2E_257" type="ego_car" route="W2E" depart="1892" departSpeed="10" departLane="best"/>
   <vehicle id="E2W_258" type="ego_car" route="E2W" depart="1898" departSpeed="10" departLane="best"/>
   <vehicle id="E2W_259" type="ego_car" route="E2W" depart="1922" departSpeed="10" departLane="best"/>
   <vehicle id="W2E_260" type="ego_car" route="W2E" depart="1924" departSpeed="10" departLane="best"/>
   <vehicle id="W2E_261" type="ego_car" route="W2E" depart="1952" departSpeed="10" departLane="best"/>
   <vehicle id="E2W_262" type="ego_car" route="E2W" depart="1971" departSpeed="10" departLane="best"/>
   <vehicle id="E2W_263" type="ego_car" route="E2W" depart="2001" departSpeed="10" departLane="best"/>
   <vehicle id="E2W_264" type="ego_car" route="E2W" depart="2013" departSpeed="10" departLane="best"/>
   <vehicle id="W2E_265" type="ego_car" route="W2E" depart="2022" departSpeed="10" departLane="best"/>
   <vehicle id="W2E_266" type="ego_car" route="W2E" depart="2057" departSpeed="10" departLane="best"/>
   <vehicle id="W2E_267" type="ego_car" route="W2E" depart="2067" departSpeed="10" departLane="best"/>
   <vehicle id="E2W_268" type="ego_car" route="E2W" depart="2239" departSpeed="10" departLane="best"/>
   <vehicle id="W2E_269" type="ego_car" route="W2E" depart="2274" departSpeed="10" departLane="best"/>
   <vehicle id="W2E_270" type="ego_car" route="W2E" depart="2319" departSpeed="10" departLane="best"/>
   <vehicle id="W2E_271" type="ego_car" route="W2E" depart="2335" departSpeed="10" departLane="best"/>
   <vehicle id="E2W_272" type="ego_car" route="E2W" depart="2380" departSpeed="10" departLane="best"/>
   <vehicle id="E2W_273" type="ego_car" route="E2W" depart="2411" departSpeed="10" departLane="best"/>
   <vehicle id="E2W_274" type="ego_car" route="E2W" depart="2431" departSpeed="10" departLane="best"/>
   <vehicle id="E2W_275" type="ego_car" route="E2W" depart="2465" departSpeed="10" departLane="best"/>
   <vehicle id="E2W_276" type="ego_car" route="E2W" depart="2469" departSpeed="10" departLane="best"/>
   <vehicle id="W2E_277" type="ego_car" route="W2E" depart="2496" departSpeed="10" departLane="best"/>
   <vehicle id="W2E_278" type="ego_car" route="W2E" depart="2570" departSpeed="10" departLane="best"/>
   <vehicle id="E2W_279" type="ego_car" route="E2W" depart="2674" departSpeed="10" departLane="best"/>
   <vehicle id="W2E_280" type="ego_car" route="W2E" depart="2717" departSpeed="10" departLane="best"/>
</routes>
